@<TRIPOS>MOLECULE
12371
 23 22 0 0 0
SMALL
GASTEIGER

@<TRIPOS>ATOM
      1 CL          2.0000    0.2500    0.0000 Cl      1  UNL1       -0.1254
      2 C           5.4641    0.2500    0.0000 C.3     1  UNL1       -0.0530
      3 C           4.5981   -0.2500    0.0000 C.3     1  UNL1       -0.0520
      4 C           6.3301   -0.2500    0.0000 C.3     1  UNL1       -0.0533
      5 C           3.7320    0.2500    0.0000 C.3     1  UNL1       -0.0396
      6 C           7.1962    0.2500    0.0000 C.3     1  UNL1       -0.0559
      7 C           2.8660   -0.2500    0.0000 C.3     1  UNL1        0.0226
      8 C           8.0622   -0.2500    0.0000 C.3     1  UNL1       -0.0653
      9 H           5.8626    0.7249    0.0000 H       1  UNL1        0.0265
     10 H           5.0656    0.7249    0.0000 H       1  UNL1        0.0265
     11 H           4.1996   -0.7249    0.0000 H       1  UNL1        0.0266
     12 H           4.9966   -0.7249    0.0000 H       1  UNL1        0.0266
     13 H           5.9316   -0.7249    0.0000 H       1  UNL1        0.0265
     14 H           6.7287   -0.7249    0.0000 H       1  UNL1        0.0265
     15 H           4.1306    0.7249    0.0000 H       1  UNL1        0.0277
     16 H           3.3335    0.7249    0.0000 H       1  UNL1        0.0277
     17 H           7.5947    0.7249    0.0000 H       1  UNL1        0.0263
     18 H           6.7976    0.7249    0.0000 H       1  UNL1        0.0263
     19 H           2.4675   -0.7249    0.0000 H       1  UNL1        0.0429
     20 H           3.2646   -0.7249    0.0000 H       1  UNL1        0.0429
     21 H           7.7522   -0.7869    0.0000 H       1  UNL1        0.0230
     22 H           8.5991   -0.5600    0.0000 H       1  UNL1        0.0230
     23 H           8.3722    0.2869    0.0000 H       1  UNL1        0.0230
@<TRIPOS>BOND
     1     1     7    1
     2     2     3    1
     3     2     4    1
     4     2     9    1
     5     2    10    1
     6     3     5    1
     7     3    11    1
     8     3    12    1
     9     4     6    1
    10     4    13    1
    11     4    14    1
    12     5     7    1
    13     5    15    1
    14     5    16    1
    15     6     8    1
    16     6    17    1
    17     6    18    1
    18     7    19    1
    19     7    20    1
    20     8    21    1
    21     8    22    1
    22     8    23    1
