@<TRIPOS>MOLECULE
6366
 6 5 0 0 0
SMALL
GASTEIGER

@<TRIPOS>ATOM
      1 CL          3.7320    0.7500    0.0000 Cl      1  UNL1       -0.0711
      2 CL          2.0000    0.7500    0.0000 Cl      1  UNL1       -0.0711
      3 C           2.8660    0.2500    0.0000 C.2     1  UNL1        0.0995
      4 C           2.8660   -0.7500    0.0000 C.2     1  UNL1       -0.0689
      5 H           2.3291   -1.0600    0.0000 H       1  UNL1        0.0558
      6 H           3.4030   -1.0600    0.0000 H       1  UNL1        0.0558
@<TRIPOS>BOND
     1     1     3    1
     2     2     3    1
     3     3     4    2
     4     4     5    1
     5     4     6    1
