@<TRIPOS>MOLECULE
6278
 8 7 0 0 0
SMALL
GASTEIGER

@<TRIPOS>ATOM
      1 CL          3.7320    0.5000    0.0000 Cl      1  UNL1       -0.0837
      2 CL          2.0000   -0.5000    0.0000 Cl      1  UNL1       -0.0837
      3 CL          2.3660    0.8660    0.0000 Cl      1  UNL1       -0.0837
      4 C           2.8660    0.0000    0.0000 C.3     1  UNL1        0.1879
      5 C           3.3660   -0.8660    0.0000 C.3     1  UNL1       -0.0180
      6 H           2.8291   -1.1760    0.0000 H       1  UNL1        0.0270
      7 H           3.6760   -1.4030    0.0000 H       1  UNL1        0.0270
      8 H           3.9030   -0.5560    0.0000 H       1  UNL1        0.0270
@<TRIPOS>BOND
     1     1     4    1
     2     2     4    1
     3     3     4    1
     4     4     5    1
     5     5     6    1
     6     5     7    1
     7     5     8    1
