@<TRIPOS>MOLECULE
6591
 8 7 0 0 0
SMALL
GASTEIGER

@<TRIPOS>ATOM
      1 CL          2.0000    0.2500    0.0000 Cl      1  UNL1       -0.1018
      2 CL          2.8660   -1.2500    0.0000 Cl      1  UNL1       -0.1018
      3 CL          4.5981   -0.2500    0.0000 Cl      1  UNL1       -0.1018
      4 CL          3.7320    1.2500    0.0000 Cl      1  UNL1       -0.1018
      5 C           2.8660   -0.2500    0.0000 C.3     1  UNL1        0.1374
      6 C           3.7320    0.2500    0.0000 C.3     1  UNL1        0.1374
      7 H           2.8660    0.3700    0.0000 H       1  UNL1        0.0661
      8 H           3.7320   -0.3700    0.0000 H       1  UNL1        0.0661
@<TRIPOS>BOND
     1     1     5    1
     2     2     5    1
     3     3     6    1
     4     4     6    1
     5     5     6    1
     6     5     7    1
     7     6     8    1
