@<TRIPOS>MOLECULE
11
 8 7 0 0 0
SMALL
GASTEIGER

@<TRIPOS>ATOM
      1 CL          2.0000    0.2500    0.0000 Cl      1  UNL1       -0.1242
      2 CL          4.5981   -0.2500    0.0000 Cl      1  UNL1       -0.1242
      3 C           2.8660   -0.2500    0.0000 C.3     1  UNL1        0.0360
      4 C           3.7320    0.2500    0.0000 C.3     1  UNL1        0.0360
      5 H           2.4675   -0.7249    0.0000 H       1  UNL1        0.0441
      6 H           3.2646   -0.7249    0.0000 H       1  UNL1        0.0441
      7 H           4.1306    0.7249    0.0000 H       1  UNL1        0.0441
      8 H           3.3335    0.7249    0.0000 H       1  UNL1        0.0441
@<TRIPOS>BOND
     1     1     3    1
     2     2     4    1
     3     3     4    1
     4     3     5    1
     5     3     6    1
     6     4     7    1
     7     4     8    1
