@<TRIPOS>MOLECULE
6564
 11 10 0 0 0
SMALL
GASTEIGER

@<TRIPOS>ATOM
      1 CL          2.0000    0.7500    0.0000 Cl      1  UNL1       -0.1208
      2 CL          4.5981    0.2500    0.0000 Cl      1  UNL1       -0.1239
      3 C           2.8660    0.2500    0.0000 C.3     1  UNL1        0.0445
      4 C           3.7320    0.7500    0.0000 C.3     1  UNL1        0.0386
      5 C           2.8660   -0.7500    0.0000 C.3     1  UNL1       -0.0477
      6 H           2.8660    1.1000    0.0000 H       1  UNL1        0.0474
      7 H           4.1306    1.2250    0.0000 H       1  UNL1        0.0444
      8 H           3.3335    1.2250    0.0000 H       1  UNL1        0.0444
      9 H           2.2460   -0.7500    0.0000 H       1  UNL1        0.0244
     10 H           2.8660   -1.3700    0.0000 H       1  UNL1        0.0244
     11 H           3.4860   -0.7500    0.0000 H       1  UNL1        0.0244
@<TRIPOS>BOND
     1     1     3    1
     2     2     4    1
     3     3     4    1
     4     3     5    1
     5     3     6    1
     6     4     7    1
     7     4     8    1
     8     5     9    1
     9     5    10    1
    10     5    11    1
