@<TRIPOS>MOLECULE
7247
 21 21 0 0 0
SMALL
GASTEIGER

@<TRIPOS>ATOM
      1 C           3.7320    0.5000    0.0000 C.ar    1  UNL1       -0.0473
      2 C           2.8660    0.0000    0.0000 C.ar    1  UNL1       -0.0475
      3 C           4.5981   -1.0000    0.0000 C.ar    1  UNL1       -0.0502
      4 C           4.5981    0.0000    0.0000 C.ar    1  UNL1       -0.0557
      5 C           2.8660   -1.0000    0.0000 C.ar    1  UNL1       -0.0583
      6 C           3.7320   -1.5000    0.0000 C.ar    1  UNL1       -0.0586
      7 C           3.7320    1.5000    0.0000 C.3     1  UNL1       -0.0395
      8 C           2.0000    0.5000    0.0000 C.3     1  UNL1       -0.0395
      9 C           5.4641   -1.5000    0.0000 C.3     1  UNL1       -0.0397
     10 H           5.1350    0.3100    0.0000 H       1  UNL1        0.0623
     11 H           2.3291   -1.3100    0.0000 H       1  UNL1        0.0620
     12 H           3.7320   -2.1200    0.0000 H       1  UNL1        0.0620
     13 H           4.3520    1.5000    0.0000 H       1  UNL1        0.0278
     14 H           3.7320    2.1200    0.0000 H       1  UNL1        0.0278
     15 H           3.1120    1.5000    0.0000 H       1  UNL1        0.0278
     16 H           2.3100    1.0369    0.0000 H       1  UNL1        0.0278
     17 H           1.4631    0.8100    0.0000 H       1  UNL1        0.0278
     18 H           1.6900   -0.0369    0.0000 H       1  UNL1        0.0278
     19 H           5.1541   -2.0369    0.0000 H       1  UNL1        0.0278
     20 H           6.0010   -1.8100    0.0000 H       1  UNL1        0.0278
     21 H           5.7741   -0.9631    0.0000 H       1  UNL1        0.0278
@<TRIPOS>BOND
     1     1     2   ar
     2     1     4   ar
     3     1     7    1
     4     2     5   ar
     5     2     8    1
     6     3     4   ar
     7     3     6   ar
     8     3     9    1
     9     4    10    1
    10     5     6   ar
    11     5    11    1
    12     6    12    1
    13     7    13    1
    14     7    14    1
    15     7    15    1
    16     8    16    1
    17     8    17    1
    18     8    18    1
    19     9    19    1
    20     9    20    1
    21     9    21    1
