@<TRIPOS>MOLECULE
13
 12 12 0 0 0
SMALL
GASTEIGER

@<TRIPOS>ATOM
      1 CL          3.7320    1.5000    0.0000 Cl      1  UNL1       -0.0820
      2 CL          2.0000    0.5000    0.0000 Cl      1  UNL1       -0.0820
      3 CL          5.4641   -1.5000    0.0000 Cl      1  UNL1       -0.0835
      4 C           3.7320    0.5000    0.0000 C.ar    1  UNL1        0.0606
      5 C           2.8660    0.0000    0.0000 C.ar    1  UNL1        0.0593
      6 C           4.5981    0.0000    0.0000 C.ar    1  UNL1       -0.0236
      7 C           4.5981   -1.0000    0.0000 C.ar    1  UNL1        0.0424
      8 C           2.8660   -1.0000    0.0000 C.ar    1  UNL1       -0.0406
      9 C           3.7320   -1.5000    0.0000 C.ar    1  UNL1       -0.0419
     10 H           5.1350    0.3100    0.0000 H       1  UNL1        0.0647
     11 H           2.3291   -1.3100    0.0000 H       1  UNL1        0.0633
     12 H           3.7320   -2.1200    0.0000 H       1  UNL1        0.0633
@<TRIPOS>BOND
     1     1     4    1
     2     2     5    1
     3     3     7    1
     4     4     5   ar
     5     4     6   ar
     6     5     8   ar
     7     6     7   ar
     8     6    10    1
     9     7     9   ar
    10     8     9   ar
    11     8    11    1
    12     9    12    1
