@<TRIPOS>MOLECULE
7270
 12 12 0 0 0
SMALL
GASTEIGER

@<TRIPOS>ATOM
      1 CL          5.4641   -1.0000    0.0000 Cl      1  UNL1       -0.0820
      2 CL          3.7320   -2.0000    0.0000 Cl      1  UNL1       -0.0820
      3 CL          3.7320    2.0000    0.0000 Cl      1  UNL1       -0.0820
      4 CL          2.0000    1.0000    0.0000 Cl      1  UNL1       -0.0820
      5 C           4.5981   -0.5000    0.0000 C.ar    1  UNL1        0.0607
      6 C           3.7320   -1.0000    0.0000 C.ar    1  UNL1        0.0607
      7 C           3.7320    1.0000    0.0000 C.ar    1  UNL1        0.0607
      8 C           2.8660    0.5000    0.0000 C.ar    1  UNL1        0.0607
      9 C           4.5981    0.5000    0.0000 C.ar    1  UNL1       -0.0222
     10 C           2.8660   -0.5000    0.0000 C.ar    1  UNL1       -0.0222
     11 H           5.1350    0.8100    0.0000 H       1  UNL1        0.0648
     12 H           2.3291   -0.8100    0.0000 H       1  UNL1        0.0648
@<TRIPOS>BOND
     1     1     5    1
     2     2     6    1
     3     3     7    1
     4     4     8    1
     5     5     6   ar
     6     5     9   ar
     7     6    10   ar
     8     7     8   ar
     9     7     9   ar
    10     8    10   ar
    11     9    11    1
    12    10    12    1
