@<TRIPOS>MOLECULE
10943
 12 12 0 0 0
SMALL
GASTEIGER

@<TRIPOS>ATOM
      1 CL          2.0000   -1.5000    0.0000 Cl      1  UNL1       -0.0835
      2 CL          3.7320    1.5000    0.0000 Cl      1  UNL1       -0.0835
      3 C           2.8660    0.0000    0.0000 C.ar    1  UNL1       -0.0250
      4 C           2.8660   -1.0000    0.0000 C.ar    1  UNL1        0.0424
      5 C           3.7320    0.5000    0.0000 C.ar    1  UNL1        0.0424
      6 C           3.7320   -1.5000    0.0000 C.ar    1  UNL1       -0.0433
      7 C           4.5981   -0.0000    0.0000 C.ar    1  UNL1       -0.0433
      8 C           4.5981   -1.0000    0.0000 C.ar    1  UNL1       -0.0590
      9 H           2.3291    0.3100    0.0000 H       1  UNL1        0.0647
     10 H           3.7320   -2.1200    0.0000 H       1  UNL1        0.0632
     11 H           5.1350    0.3100    0.0000 H       1  UNL1        0.0632
     12 H           5.1350   -1.3100    0.0000 H       1  UNL1        0.0618
@<TRIPOS>BOND
     1     1     4    1
     2     2     5    1
     3     3     4   ar
     4     3     5   ar
     5     3     9    1
     6     4     6   ar
     7     5     7   ar
     8     6     8   ar
     9     6    10    1
    10     7     8   ar
    11     7    11    1
    12     8    12    1
