@<TRIPOS>MOLECULE
8881
 11 10 0 0 0
SMALL
GASTEIGER

@<TRIPOS>ATOM
      1 CL          5.4641   -0.2500    0.0000 Cl      1  UNL1       -0.1254
      2 CL          2.0000   -0.2500    0.0000 Cl      1  UNL1       -0.1254
      3 C           3.7320   -0.2500    0.0000 C.3     1  UNL1       -0.0261
      4 C           4.5981    0.2500    0.0000 C.3     1  UNL1        0.0237
      5 C           2.8660    0.2500    0.0000 C.3     1  UNL1        0.0237
      6 H           3.3335   -0.7249    0.0000 H       1  UNL1        0.0288
      7 H           4.1306   -0.7249    0.0000 H       1  UNL1        0.0288
      8 H           4.9966    0.7249    0.0000 H       1  UNL1        0.0430
      9 H           4.1996    0.7249    0.0000 H       1  UNL1        0.0430
     10 H           3.2646    0.7249    0.0000 H       1  UNL1        0.0430
     11 H           2.4675    0.7249    0.0000 H       1  UNL1        0.0430
@<TRIPOS>BOND
     1     1     4    1
     2     2     5    1
     3     3     4    1
     4     3     5    1
     5     3     6    1
     6     3     7    1
     7     4     8    1
     8     4     9    1
     9     5    10    1
    10     5    11    1
