@<TRIPOS>MOLECULE
6361
 11 10 0 0 0
SMALL
GASTEIGER

@<TRIPOS>ATOM
      1 CL          3.7320    0.7500    0.0000 Cl      1  UNL1       -0.1223
      2 C           2.8660    0.2500    0.0000 C.3     1  UNL1        0.0284
      3 C           2.0000    0.7500    0.0000 C.3     1  UNL1       -0.0491
      4 C           2.8660   -0.7500    0.0000 C.3     1  UNL1       -0.0491
      5 H           2.8660    0.8700    0.0000 H       1  UNL1        0.0460
      6 H           2.3100    1.2869    0.0000 H       1  UNL1        0.0244
      7 H           1.4631    1.0600    0.0000 H       1  UNL1        0.0244
      8 H           1.6900    0.2131    0.0000 H       1  UNL1        0.0244
      9 H           2.2460   -0.7500    0.0000 H       1  UNL1        0.0244
     10 H           2.8660   -1.3700    0.0000 H       1  UNL1        0.0244
     11 H           3.4860   -0.7500    0.0000 H       1  UNL1        0.0244
@<TRIPOS>BOND
     1     1     2    1
     2     2     3    1
     3     2     4    1
     4     2     5    1
     5     3     6    1
     6     3     7    1
     7     3     8    1
     8     4     9    1
     9     4    10    1
    10     4    11    1
