@<TRIPOS>MOLECULE
6563
 14 13 0 0 0
SMALL
GASTEIGER

@<TRIPOS>ATOM
      1 CL          2.0000    0.7500    0.0000 Cl      1  UNL1       -0.1221
      2 C           2.8660    0.2500    0.0000 C.3     1  UNL1        0.0309
      3 C           3.7320    0.7500    0.0000 C.3     1  UNL1       -0.0398
      4 C           2.8660   -0.7500    0.0000 C.3     1  UNL1       -0.0488
      5 C           4.5981    0.2500    0.0000 C.3     1  UNL1       -0.0640
      6 H           2.8660    1.1000    0.0000 H       1  UNL1        0.0462
      7 H           4.1306    1.2250    0.0000 H       1  UNL1        0.0277
      8 H           3.3335    1.2250    0.0000 H       1  UNL1        0.0277
      9 H           2.2460   -0.7500    0.0000 H       1  UNL1        0.0244
     10 H           2.8660   -1.3700    0.0000 H       1  UNL1        0.0244
     11 H           3.4860   -0.7500    0.0000 H       1  UNL1        0.0244
     12 H           4.2881   -0.2869    0.0000 H       1  UNL1        0.0230
     13 H           5.1350   -0.0600    0.0000 H       1  UNL1        0.0230
     14 H           4.9081    0.7869    0.0000 H       1  UNL1        0.0230
@<TRIPOS>BOND
     1     1     2    1
     2     2     3    1
     3     2     4    1
     4     2     6    1
     5     3     5    1
     6     3     7    1
     7     3     8    1
     8     4     9    1
     9     4    10    1
    10     4    11    1
    11     5    12    1
    12     5    13    1
    13     5    14    1
