@<TRIPOS>MOLECULE
7238
 15 15 0 0 0
SMALL
GASTEIGER

@<TRIPOS>ATOM
      1 CL          3.7320    1.5000    0.0000 Cl      1  UNL1       -0.0833
      2 C           2.8660    0.0000    0.0000 C.ar    1  UNL1       -0.0321
      3 C           3.7320    0.5000    0.0000 C.ar    1  UNL1        0.0439
      4 C           2.8660   -1.0000    0.0000 C.ar    1  UNL1       -0.0575
      5 C           2.0000    0.5000    0.0000 C.3     1  UNL1       -0.0383
      6 C           4.5981   -0.0000    0.0000 C.ar    1  UNL1       -0.0431
      7 C           3.7320   -1.5000    0.0000 C.ar    1  UNL1       -0.0614
      8 C           4.5981   -1.0000    0.0000 C.ar    1  UNL1       -0.0604
      9 H           2.3291   -1.3100    0.0000 H       1  UNL1        0.0621
     10 H           2.3100    1.0369    0.0000 H       1  UNL1        0.0278
     11 H           1.4631    0.8100    0.0000 H       1  UNL1        0.0278
     12 H           1.6900   -0.0369    0.0000 H       1  UNL1        0.0278
     13 H           5.1350    0.3100    0.0000 H       1  UNL1        0.0632
     14 H           3.7320   -2.1200    0.0000 H       1  UNL1        0.0618
     15 H           5.1350   -1.3100    0.0000 H       1  UNL1        0.0618
@<TRIPOS>BOND
     1     1     3    1
     2     2     3   ar
     3     2     4   ar
     4     2     5    1
     5     3     6   ar
     6     4     7   ar
     7     4     9    1
     8     5    10    1
     9     5    11    1
    10     5    12    1
    11     6     8   ar
    12     6    13    1
    13     7     8   ar
    14     7    14    1
    15     8    15    1
