@<TRIPOS>MOLECULE
11904
 19 19 0 0 0
SMALL
GASTEIGER

@<TRIPOS>ATOM
      1 C           2.8660   -0.2500    0.0000 C.ar    1  UNL1       -0.0433
      2 C           3.7320    0.2500    0.0000 C.ar    1  UNL1       -0.0227
      3 C           2.8660   -1.2500    0.0000 C.ar    1  UNL1       -0.0583
      4 C           4.5981   -0.2500    0.0000 C.ar    1  UNL1       -0.0544
      5 C           2.0000    0.2500    0.0000 C.3     1  UNL1       -0.0392
      6 C           3.7320   -1.7500    0.0000 C.ar    1  UNL1       -0.0615
      7 C           4.5981   -1.2500    0.0000 C.ar    1  UNL1       -0.0612
      8 C           3.7320    1.2500    0.0000 C.2     1  UNL1       -0.0614
      9 C           4.5981    1.7500    0.0000 C.2     1  UNL1       -0.0981
     10 H           2.3291   -1.5600    0.0000 H       1  UNL1        0.0620
     11 H           5.1350    0.0600    0.0000 H       1  UNL1        0.0624
     12 H           2.3100    0.7869    0.0000 H       1  UNL1        0.0278
     13 H           1.4631    0.5600    0.0000 H       1  UNL1        0.0278
     14 H           1.6900   -0.2869    0.0000 H       1  UNL1        0.0278
     15 H           3.7320   -2.3700    0.0000 H       1  UNL1        0.0618
     16 H           5.1350   -1.5600    0.0000 H       1  UNL1        0.0618
     17 H           3.1951    1.5600    0.0000 H       1  UNL1        0.0618
     18 H           5.1350    1.4400    0.0000 H       1  UNL1        0.0535
     19 H           4.5981    2.3700    0.0000 H       1  UNL1        0.0535
@<TRIPOS>BOND
     1     1     2   ar
     2     1     3   ar
     3     1     5    1
     4     2     4   ar
     5     2     8    1
     6     3     6   ar
     7     3    10    1
     8     4     7   ar
     9     4    11    1
    10     5    12    1
    11     5    13    1
    12     5    14    1
    13     6     7   ar
    14     6    15    1
    15     7    16    1
    16     8     9    2
    17     8    17    1
    18     9    18    1
    19     9    19    1
