@<TRIPOS>MOLECULE
460
 17 17 0 0 0
SMALL
GASTEIGER

@<TRIPOS>ATOM
      1 O           4.2690    1.2500    0.0000 O.3     1  UNL1       -0.4915
      2 O           2.5369    0.2500    0.0000 O.3     1  UNL1       -0.5033
      3 C           4.2690    0.2500    0.0000 C.ar    1  UNL1        0.1613
      4 C           3.4030   -0.2500    0.0000 C.ar    1  UNL1        0.1584
      5 C           5.1350   -0.2500    0.0000 C.ar    1  UNL1       -0.0163
      6 C           3.4030   -1.2500    0.0000 C.ar    1  UNL1       -0.0165
      7 C           5.1350   -1.2500    0.0000 C.ar    1  UNL1       -0.0581
      8 C           4.2690   -1.7500    0.0000 C.ar    1  UNL1       -0.0581
      9 C           5.1350    1.7500    0.0000 C.3     1  UNL1        0.0790
     10 H           5.6720    0.0600    0.0000 H       1  UNL1        0.0655
     11 H           2.8660   -1.5600    0.0000 H       1  UNL1        0.0655
     12 H           5.6720   -1.5600    0.0000 H       1  UNL1        0.0619
     13 H           4.2690   -2.3700    0.0000 H       1  UNL1        0.0619
     14 H           5.4450    1.2131    0.0000 H       1  UNL1        0.0660
     15 H           5.6720    2.0600    0.0000 H       1  UNL1        0.0660
     16 H           4.8250    2.2869    0.0000 H       1  UNL1        0.0660
     17 H           2.0000   -0.0600    0.0000 H       1  UNL1        0.2923
@<TRIPOS>BOND
     1     1     3    1
     2     1     9    1
     3     2     4    1
     4     2    17    1
     5     3     4   ar
     6     3     5   ar
     7     4     6   ar
     8     5     7   ar
     9     5    10    1
    10     6     8   ar
    11     6    11    1
    12     7     8   ar
    13     7    12    1
    14     8    13    1
    15     9    14    1
    16     9    15    1
    17     9    16    1
