@<TRIPOS>MOLECULE
11543
 21 20 0 0 0
SMALL
GASTEIGER

@<TRIPOS>ATOM
      1 O           2.5369   -0.5000    0.0000 O.3     1  UNL1       -0.3891
      2 C           3.4030    0.0000    0.0000 C.3     1  UNL1        0.0605
      3 C           4.2690    0.5000    0.0000 C.3     1  UNL1       -0.0248
      4 C           5.1350    0.0000    0.0000 C.3     1  UNL1       -0.0533
      5 C           2.9030    0.8660    0.0000 C.3     1  UNL1       -0.0363
      6 C           3.9030   -0.8660    0.0000 C.3     1  UNL1       -0.0363
      7 C           6.0010    0.5000    0.0000 C.3     1  UNL1       -0.0652
      8 H           4.6675    0.9749    0.0000 H       1  UNL1        0.0293
      9 H           3.8705    0.9749    0.0000 H       1  UNL1        0.0293
     10 H           4.7365   -0.4749    0.0000 H       1  UNL1        0.0264
     11 H           5.5335   -0.4749    0.0000 H       1  UNL1        0.0264
     12 H           3.4399    1.1760    0.0000 H       1  UNL1        0.0257
     13 H           2.5930    1.4030    0.0000 H       1  UNL1        0.0257
     14 H           2.3660    0.5560    0.0000 H       1  UNL1        0.0257
     15 H           3.3660   -1.1760    0.0000 H       1  UNL1        0.0257
     16 H           4.2130   -1.4030    0.0000 H       1  UNL1        0.0257
     17 H           4.4399   -0.5560    0.0000 H       1  UNL1        0.0257
     18 H           6.3110   -0.0369    0.0000 H       1  UNL1        0.0230
     19 H           6.5380    0.8100    0.0000 H       1  UNL1        0.0230
     20 H           5.6910    1.0369    0.0000 H       1  UNL1        0.0230
     21 H           2.0000   -0.1900    0.0000 H       1  UNL1        0.2101
@<TRIPOS>BOND
     1     1     2    1
     2     1    21    1
     3     2     3    1
     4     2     5    1
     5     2     6    1
     6     3     4    1
     7     3     8    1
     8     3     9    1
     9     4     7    1
    10     4    10    1
    11     4    11    1
    12     5    12    1
    13     5    13    1
    14     5    14    1
    15     6    15    1
    16     6    16    1
    17     6    17    1
    18     7    18    1
    19     7    19    1
    20     7    20    1
