@<TRIPOS>MOLECULE
6054
 19 19 0 0 0
SMALL
GASTEIGER

@<TRIPOS>ATOM
      1 O           3.7320    2.0950    0.0000 O.3     1  UNL1       -0.3947
      2 C           2.8660    0.5950    0.0000 C.3     1  UNL1       -0.0044
      3 C           2.8660   -0.4050    0.0000 C.ar    1  UNL1       -0.0452
      4 C           3.7320    1.0950    0.0000 C.3     1  UNL1        0.0482
      5 C           2.0000   -0.9050    0.0000 C.ar    1  UNL1       -0.0585
      6 C           3.7320   -0.9050    0.0000 C.ar    1  UNL1       -0.0585
      7 C           2.0000   -1.9050    0.0000 C.ar    1  UNL1       -0.0615
      8 C           3.7320   -1.9050    0.0000 C.ar    1  UNL1       -0.0615
      9 C           2.8660   -2.4050    0.0000 C.ar    1  UNL1       -0.0617
     10 H           2.6540    1.1776    0.0000 H       1  UNL1        0.0335
     11 H           2.2554    0.4873    0.0000 H       1  UNL1        0.0335
     12 H           3.9441    0.5124    0.0000 H       1  UNL1        0.0560
     13 H           4.3426    1.2027    0.0000 H       1  UNL1        0.0560
     14 H           1.4631   -0.5950    0.0000 H       1  UNL1        0.0620
     15 H           4.2690   -0.5950    0.0000 H       1  UNL1        0.0620
     16 H           1.4631   -2.2150    0.0000 H       1  UNL1        0.0618
     17 H           4.2690   -2.2150    0.0000 H       1  UNL1        0.0618
     18 H           2.8660   -3.0250    0.0000 H       1  UNL1        0.0618
     19 H           4.2690    2.4050    0.0000 H       1  UNL1        0.2094
@<TRIPOS>BOND
     1     1     4    1
     2     1    19    1
     3     2     3    1
     4     2     4    1
     5     2    10    1
     6     2    11    1
     7     3     5   ar
     8     3     6   ar
     9     4    12    1
    10     4    13    1
    11     5     7   ar
    12     5    14    1
    13     6     8   ar
    14     6    15    1
    15     7     9   ar
    16     7    16    1
    17     8     9   ar
    18     8    17    1
    19     9    18    1
