@<TRIPOS>MOLECULE
17756
 19 18 0 0 0
SMALL
GASTEIGER

@<TRIPOS>ATOM
      1 O           4.5981   -0.2500    0.0000 O.3     1  UNL1       -0.3775
      2 O           7.1962    0.2500    0.0000 O.3     1  UNL1       -0.3927
      3 C           3.7320    0.2500    0.0000 C.3     1  UNL1        0.0475
      4 C           2.8660   -0.2500    0.0000 C.3     1  UNL1       -0.0323
      5 C           5.4641    0.2500    0.0000 C.3     1  UNL1        0.0707
      6 C           2.0000    0.2500    0.0000 C.3     1  UNL1       -0.0632
      7 C           6.3301   -0.2500    0.0000 C.3     1  UNL1        0.0676
      8 H           4.1306    0.7249    0.0000 H       1  UNL1        0.0560
      9 H           3.3335    0.7249    0.0000 H       1  UNL1        0.0560
     10 H           2.4675   -0.7249    0.0000 H       1  UNL1        0.0285
     11 H           3.2646   -0.7249    0.0000 H       1  UNL1        0.0285
     12 H           5.8626    0.7249    0.0000 H       1  UNL1        0.0583
     13 H           5.0656    0.7249    0.0000 H       1  UNL1        0.0583
     14 H           2.3100    0.7869    0.0000 H       1  UNL1        0.0230
     15 H           1.4631    0.5600    0.0000 H       1  UNL1        0.0230
     16 H           1.6900   -0.2869    0.0000 H       1  UNL1        0.0230
     17 H           5.9316   -0.7249    0.0000 H       1  UNL1        0.0580
     18 H           6.7287   -0.7249    0.0000 H       1  UNL1        0.0580
     19 H           7.7331   -0.0600    0.0000 H       1  UNL1        0.2095
@<TRIPOS>BOND
     1     1     3    1
     2     1     5    1
     3     2     7    1
     4     2    19    1
     5     3     4    1
     6     3     8    1
     7     3     9    1
     8     4     6    1
     9     4    10    1
    10     4    11    1
    11     5     7    1
    12     5    12    1
    13     5    13    1
    14     6    14    1
    15     6    15    1
    16     6    16    1
    17     7    17    1
    18     7    18    1
