@<TRIPOS>MOLECULE
10907
 26 25 0 0 0
SMALL
GASTEIGER

@<TRIPOS>ATOM
      1 C           2.8660    0.0670    0.0000 C.3     1  UNL1       -0.0375
      2 C           3.7320    0.5670    0.0000 C.3     1  UNL1       -0.0458
      3 C           4.5981    0.0670    0.0000 C.3     1  UNL1       -0.0462
      4 C           2.0000   -0.4330    0.0000 C.3     1  UNL1       -0.0601
      5 C           2.3660    0.9330    0.0000 C.3     1  UNL1       -0.0601
      6 C           3.3660   -0.7990    0.0000 C.3     1  UNL1       -0.0601
      7 C           5.4641    0.5670    0.0000 C.3     1  UNL1       -0.0626
      8 C           4.5981   -0.9330    0.0000 C.3     1  UNL1       -0.0626
      9 H           4.1306    1.0419    0.0000 H       1  UNL1        0.0273
     10 H           3.3335    1.0419    0.0000 H       1  UNL1        0.0273
     11 H           4.5981    0.6870    0.0000 H       1  UNL1        0.0296
     12 H           1.6900    0.1039    0.0000 H       1  UNL1        0.0235
     13 H           1.4631   -0.7430    0.0000 H       1  UNL1        0.0235
     14 H           2.3100   -0.9699    0.0000 H       1  UNL1        0.0235
     15 H           2.9030    1.2430    0.0000 H       1  UNL1        0.0235
     16 H           2.0560    1.4700    0.0000 H       1  UNL1        0.0235
     17 H           1.8291    0.6230    0.0000 H       1  UNL1        0.0235
     18 H           2.8291   -1.1090    0.0000 H       1  UNL1        0.0235
     19 H           3.6760   -1.3360    0.0000 H       1  UNL1        0.0235
     20 H           3.9030   -0.4890    0.0000 H       1  UNL1        0.0235
     21 H           5.7741    0.0301    0.0000 H       1  UNL1        0.0232
     22 H           6.0010    0.8770    0.0000 H       1  UNL1        0.0232
     23 H           5.1541    1.1039    0.0000 H       1  UNL1        0.0232
     24 H           3.9781   -0.9330    0.0000 H       1  UNL1        0.0232
     25 H           4.5981   -1.5530    0.0000 H       1  UNL1        0.0232
     26 H           5.2181   -0.9330    0.0000 H       1  UNL1        0.0232
@<TRIPOS>BOND
     1     1     2    1
     2     1     4    1
     3     1     5    1
     4     1     6    1
     5     2     3    1
     6     2     9    1
     7     2    10    1
     8     3     7    1
     9     3     8    1
    10     3    11    1
    11     4    12    1
    12     4    13    1
    13     4    14    1
    14     5    15    1
    15     5    16    1
    16     5    17    1
    17     6    18    1
    18     6    19    1
    19     6    20    1
    20     7    21    1
    21     7    22    1
    22     7    23    1
    23     8    24    1
    24     8    25    1
    25     8    26    1
