@<TRIPOS>MOLECULE
19041
 29 28 0 0 0
SMALL
GASTEIGER

@<TRIPOS>ATOM
      1 C           2.8660   -0.3170    0.0000 C.3     1  UNL1       -0.0377
      2 C           3.7320    0.1830    0.0000 C.3     1  UNL1       -0.0479
      3 C           4.5981   -0.3170    0.0000 C.3     1  UNL1       -0.0502
      4 C           5.4641    0.1830    0.0000 C.3     1  UNL1       -0.0467
      5 C           2.0000   -0.8170    0.0000 C.3     1  UNL1       -0.0601
      6 C           2.3660    0.5490    0.0000 C.3     1  UNL1       -0.0601
      7 C           3.3660   -1.1830    0.0000 C.3     1  UNL1       -0.0601
      8 C           6.3301   -0.3170    0.0000 C.3     1  UNL1       -0.0627
      9 C           5.4641    1.1830    0.0000 C.3     1  UNL1       -0.0627
     10 H           4.1306    0.6580    0.0000 H       1  UNL1        0.0270
     11 H           3.3335    0.6580    0.0000 H       1  UNL1        0.0270
     12 H           4.1996   -0.7919    0.0000 H       1  UNL1        0.0268
     13 H           4.9966   -0.7919    0.0000 H       1  UNL1        0.0268
     14 H           5.4641   -0.4370    0.0000 H       1  UNL1        0.0295
     15 H           1.6900   -0.2801    0.0000 H       1  UNL1        0.0235
     16 H           1.4631   -1.1270    0.0000 H       1  UNL1        0.0235
     17 H           2.3100   -1.3539    0.0000 H       1  UNL1        0.0235
     18 H           2.9030    0.8590    0.0000 H       1  UNL1        0.0235
     19 H           2.0560    1.0860    0.0000 H       1  UNL1        0.0235
     20 H           1.8291    0.2390    0.0000 H       1  UNL1        0.0235
     21 H           2.8291   -1.4930    0.0000 H       1  UNL1        0.0235
     22 H           3.6760   -1.7200    0.0000 H       1  UNL1        0.0235
     23 H           3.9030   -0.8730    0.0000 H       1  UNL1        0.0235
     24 H           6.0201   -0.8539    0.0000 H       1  UNL1        0.0232
     25 H           6.8671   -0.6270    0.0000 H       1  UNL1        0.0232
     26 H           6.6401    0.2199    0.0000 H       1  UNL1        0.0232
     27 H           6.0841    1.1830    0.0000 H       1  UNL1        0.0232
     28 H           5.4641    1.8030    0.0000 H       1  UNL1        0.0232
     29 H           4.8441    1.1830    0.0000 H       1  UNL1        0.0232
@<TRIPOS>BOND
     1     1     2    1
     2     1     5    1
     3     1     6    1
     4     1     7    1
     5     2     3    1
     6     2    10    1
     7     2    11    1
     8     3     4    1
     9     3    12    1
    10     3    13    1
    11     4     8    1
    12     4     9    1
    13     4    14    1
    14     5    15    1
    15     5    16    1
    16     5    17    1
    17     6    18    1
    18     6    19    1
    19     6    20    1
    20     7    21    1
    21     7    22    1
    22     7    23    1
    23     8    24    1
    24     8    25    1
    25     8    26    1
    26     9    27    1
    27     9    28    1
    28     9    29    1
