@<TRIPOS>MOLECULE
10566
 16 15 0 0 0
SMALL
GASTEIGER

@<TRIPOS>ATOM
      1 C           2.8660   -0.2500    0.0000 C.2     1  UNL1       -0.0552
      2 C           3.7320    0.2500    0.0000 C.2     1  UNL1       -0.0552
      3 C           2.0000    0.2500    0.0000 C.3     1  UNL1       -0.0400
      4 C           4.5981   -0.2500    0.0000 C.3     1  UNL1       -0.0400
      5 C           2.8660   -1.2500    0.0000 C.2     1  UNL1       -0.0955
      6 C           3.7320    1.2500    0.0000 C.2     1  UNL1       -0.0955
      7 H           2.3100    0.7869    0.0000 H       1  UNL1        0.0277
      8 H           1.4631    0.5600    0.0000 H       1  UNL1        0.0277
      9 H           1.6900   -0.2869    0.0000 H       1  UNL1        0.0277
     10 H           4.2881   -0.7869    0.0000 H       1  UNL1        0.0277
     11 H           5.1350   -0.5600    0.0000 H       1  UNL1        0.0277
     12 H           4.9081    0.2869    0.0000 H       1  UNL1        0.0277
     13 H           2.3291   -1.5600    0.0000 H       1  UNL1        0.0537
     14 H           3.4030   -1.5600    0.0000 H       1  UNL1        0.0537
     15 H           4.2690    1.5600    0.0000 H       1  UNL1        0.0537
     16 H           3.1951    1.5600    0.0000 H       1  UNL1        0.0537
@<TRIPOS>BOND
     1     1     2    1
     2     1     3    1
     3     1     5    2
     4     2     4    1
     5     2     6    2
     6     3     7    1
     7     3     8    1
     8     3     9    1
     9     4    10    1
    10     4    11    1
    11     4    12    1
    12     5    13    1
    13     5    14    1
    14     6    15    1
    15     6    16    1
