@<TRIPOS>MOLECULE
7771
 19 19 0 0 0
SMALL
GASTEIGER

@<TRIPOS>ATOM
      1 O           3.7320    1.8450    0.0000 O.3     1  UNL1       -0.5065
      2 C           2.8660    0.3450    0.0000 C.ar    1  UNL1       -0.0088
      3 C           3.7320   -1.1550    0.0000 C.ar    1  UNL1       -0.0500
      4 C           2.8660   -0.6550    0.0000 C.ar    1  UNL1       -0.0525
      5 C           3.7320    0.8450    0.0000 C.ar    1  UNL1        0.1198
      6 C           4.5981   -0.6550    0.0000 C.ar    1  UNL1       -0.0554
      7 C           4.5981    0.3450    0.0000 C.ar    1  UNL1       -0.0197
      8 C           2.0000    0.8450    0.0000 C.3     1  UNL1       -0.0362
      9 C           3.7320   -2.1550    0.0000 C.3     1  UNL1       -0.0397
     10 H           2.3291   -0.9650    0.0000 H       1  UNL1        0.0624
     11 H           5.1350   -0.9650    0.0000 H       1  UNL1        0.0621
     12 H           5.1350    0.6550    0.0000 H       1  UNL1        0.0654
     13 H           2.3100    1.3819    0.0000 H       1  UNL1        0.0279
     14 H           1.4631    1.1550    0.0000 H       1  UNL1        0.0279
     15 H           1.6900    0.3081    0.0000 H       1  UNL1        0.0279
     16 H           3.1120   -2.1550    0.0000 H       1  UNL1        0.0278
     17 H           3.7320   -2.7750    0.0000 H       1  UNL1        0.0278
     18 H           4.3520   -2.1550    0.0000 H       1  UNL1        0.0278
     19 H           4.2690    2.1550    0.0000 H       1  UNL1        0.2921
@<TRIPOS>BOND
     1     1     5    1
     2     1    19    1
     3     2     4   ar
     4     2     5   ar
     5     2     8    1
     6     3     4   ar
     7     3     6   ar
     8     3     9    1
     9     4    10    1
    10     5     7   ar
    11     6     7   ar
    12     6    11    1
    13     7    12    1
    14     8    13    1
    15     8    14    1
    16     8    15    1
    17     9    16    1
    18     9    17    1
    19     9    18    1
