@<TRIPOS>MOLECULE
11335
 19 19 0 0 0
SMALL
GASTEIGER

@<TRIPOS>ATOM
      1 O           3.7320    1.3450    0.0000 O.3     1  UNL1       -0.5062
      2 C           2.8660   -0.1550    0.0000 C.ar    1  UNL1       -0.0088
      3 C           4.5981   -0.1550    0.0000 C.ar    1  UNL1       -0.0088
      4 C           3.7320    0.3450    0.0000 C.ar    1  UNL1        0.1226
      5 C           2.8660   -1.1550    0.0000 C.ar    1  UNL1       -0.0554
      6 C           4.5981   -1.1550    0.0000 C.ar    1  UNL1       -0.0554
      7 C           3.7320   -1.6550    0.0000 C.ar    1  UNL1       -0.0610
      8 C           2.0000    0.3450    0.0000 C.3     1  UNL1       -0.0362
      9 C           5.4641    0.3450    0.0000 C.3     1  UNL1       -0.0362
     10 H           2.3291   -1.4650    0.0000 H       1  UNL1        0.0621
     11 H           5.1350   -1.4650    0.0000 H       1  UNL1        0.0621
     12 H           3.7320   -2.2750    0.0000 H       1  UNL1        0.0618
     13 H           2.3100    0.8819    0.0000 H       1  UNL1        0.0279
     14 H           1.4631    0.6550    0.0000 H       1  UNL1        0.0279
     15 H           1.6900   -0.1919    0.0000 H       1  UNL1        0.0279
     16 H           5.7741   -0.1919    0.0000 H       1  UNL1        0.0279
     17 H           6.0010    0.6550    0.0000 H       1  UNL1        0.0279
     18 H           5.1541    0.8819    0.0000 H       1  UNL1        0.0279
     19 H           4.2690    1.6550    0.0000 H       1  UNL1        0.2922
@<TRIPOS>BOND
     1     1     4    1
     2     1    19    1
     3     2     4   ar
     4     2     5   ar
     5     2     8    1
     6     3     4   ar
     7     3     6   ar
     8     3     9    1
     9     5     7   ar
    10     5    10    1
    11     6     7   ar
    12     6    11    1
    13     7    12    1
    14     8    13    1
    15     8    14    1
    16     8    15    1
    17     9    16    1
    18     9    17    1
    19     9    18    1
