@<TRIPOS>MOLECULE
5283324
 23 22 0 0 0
SMALL
GASTEIGER

@<TRIPOS>ATOM
      1 O           2.0000   -0.2500    0.0000 O.2     1  UNL1       -0.2963
      2 C           7.1962   -0.2500    0.0000 C.3     1  UNL1       -0.0530
      3 C           6.3301    0.2500    0.0000 C.3     1  UNL1       -0.0496
      4 C           8.0622    0.2500    0.0000 C.3     1  UNL1       -0.0559
      5 C           5.4641   -0.2500    0.0000 C.3     1  UNL1       -0.0344
      6 C           8.9282   -0.2500    0.0000 C.3     1  UNL1       -0.0653
      7 C           4.5981    0.2500    0.0000 C.2     1  UNL1       -0.0810
      8 C           3.7320   -0.2500    0.0000 C.2     1  UNL1       -0.0264
      9 C           2.8660    0.2500    0.0000 C.2     1  UNL1        0.1428
     10 H           6.7976   -0.7249    0.0000 H       1  UNL1        0.0265
     11 H           7.5947   -0.7249    0.0000 H       1  UNL1        0.0265
     12 H           6.7287    0.7249    0.0000 H       1  UNL1        0.0268
     13 H           5.9316    0.7249    0.0000 H       1  UNL1        0.0268
     14 H           8.4607    0.7249    0.0000 H       1  UNL1        0.0263
     15 H           7.6636    0.7249    0.0000 H       1  UNL1        0.0263
     16 H           5.0656   -0.7249    0.0000 H       1  UNL1        0.0307
     17 H           5.8626   -0.7249    0.0000 H       1  UNL1        0.0307
     18 H           8.6182   -0.7869    0.0000 H       1  UNL1        0.0230
     19 H           9.4651   -0.5600    0.0000 H       1  UNL1        0.0230
     20 H           9.2382    0.2869    0.0000 H       1  UNL1        0.0230
     21 H           4.5981    0.8700    0.0000 H       1  UNL1        0.0573
     22 H           3.7320   -0.8700    0.0000 H       1  UNL1        0.0646
     23 H           2.8660    0.8700    0.0000 H       1  UNL1        0.1075
@<TRIPOS>BOND
     1     1     9    2
     2     2     3    1
     3     2     4    1
     4     2    10    1
     5     2    11    1
     6     3     5    1
     7     3    12    1
     8     3    13    1
     9     4     6    1
    10     4    14    1
    11     4    15    1
    12     5     7    1
    13     5    16    1
    14     5    17    1
    15     6    18    1
    16     6    19    1
    17     6    20    1
    18     7     8    2
    19     7    21    1
    20     8     9    1
    21     8    22    1
    22     9    23    1
