@<TRIPOS>MOLECULE
9007
 17 17 0 0 0
SMALL
GASTEIGER

@<TRIPOS>ATOM
      1 O           3.7320    1.5600    0.0000 O.3     1  UNL1       -0.4950
      2 O           2.0000   -1.4400    0.0000 O.3     1  UNL1       -0.5066
      3 C           3.7320    0.5600    0.0000 C.ar    1  UNL1        0.1236
      4 C           2.8660    0.0600    0.0000 C.ar    1  UNL1        0.0215
      5 C           4.5981    0.0600    0.0000 C.ar    1  UNL1       -0.0197
      6 C           2.8660   -0.9400    0.0000 C.ar    1  UNL1        0.1203
      7 C           4.5981   -0.9400    0.0000 C.ar    1  UNL1       -0.0549
      8 C           3.7320   -1.4400    0.0000 C.ar    1  UNL1       -0.0199
      9 C           4.5981    2.0600    0.0000 C.3     1  UNL1        0.0788
     10 H           2.3291    0.3700    0.0000 H       1  UNL1        0.0691
     11 H           5.1350    0.3700    0.0000 H       1  UNL1        0.0654
     12 H           5.1350   -1.2500    0.0000 H       1  UNL1        0.0620
     13 H           3.7320   -2.0600    0.0000 H       1  UNL1        0.0654
     14 H           4.9081    1.5231    0.0000 H       1  UNL1        0.0660
     15 H           5.1350    2.3700    0.0000 H       1  UNL1        0.0660
     16 H           4.2881    2.5969    0.0000 H       1  UNL1        0.0660
     17 H           2.0000   -2.0600    0.0000 H       1  UNL1        0.2921
@<TRIPOS>BOND
     1     1     3    1
     2     1     9    1
     3     2     6    1
     4     2    17    1
     5     3     4   ar
     6     3     5   ar
     7     4     6   ar
     8     4    10    1
     9     5     7   ar
    10     5    11    1
    11     6     8   ar
    12     7     8   ar
    13     7    12    1
    14     8    13    1
    15     9    14    1
    16     9    15    1
    17     9    16    1
