@<TRIPOS>MOLECULE
31260
 18 17 0 0 0
SMALL
GASTEIGER

@<TRIPOS>ATOM
      1 O           5.4641    0.7500    0.0000 O.3     1  UNL1       -0.3950
      2 C           2.8660    0.2500    0.0000 C.3     1  UNL1       -0.0447
      3 C           3.7320    0.7500    0.0000 C.3     1  UNL1       -0.0274
      4 C           2.0000    0.7500    0.0000 C.3     1  UNL1       -0.0626
      5 C           2.8660   -0.7500    0.0000 C.3     1  UNL1       -0.0626
      6 C           4.5981    0.2500    0.0000 C.3     1  UNL1        0.0444
      7 H           2.8660    0.8700    0.0000 H       1  UNL1        0.0296
      8 H           4.1306    1.2250    0.0000 H       1  UNL1        0.0290
      9 H           3.3335    1.2250    0.0000 H       1  UNL1        0.0290
     10 H           2.3100    1.2869    0.0000 H       1  UNL1        0.0232
     11 H           1.4631    1.0600    0.0000 H       1  UNL1        0.0232
     12 H           1.6900    0.2131    0.0000 H       1  UNL1        0.0232
     13 H           2.2460   -0.7500    0.0000 H       1  UNL1        0.0232
     14 H           2.8660   -1.3700    0.0000 H       1  UNL1        0.0232
     15 H           3.4860   -0.7500    0.0000 H       1  UNL1        0.0232
     16 H           4.1996   -0.2249    0.0000 H       1  UNL1        0.0557
     17 H           4.9966   -0.2249    0.0000 H       1  UNL1        0.0557
     18 H           6.0010    0.4400    0.0000 H       1  UNL1        0.2094
@<TRIPOS>BOND
     1     1     6    1
     2     1    18    1
     3     2     3    1
     4     2     4    1
     5     2     5    1
     6     2     7    1
     7     3     6    1
     8     3     8    1
     9     3     9    1
    10     4    10    1
    11     4    11    1
    12     4    12    1
    13     5    13    1
    14     5    14    1
    15     5    15    1
    16     6    16    1
    17     6    17    1
