@<TRIPOS>MOLECULE
7249
 19 19 0 0 0
SMALL
GASTEIGER

@<TRIPOS>ATOM
      1 O           5.4641   -1.1900    0.0000 O.3     1  UNL1       -0.5068
      2 C           3.7320    0.8100    0.0000 C.ar    1  UNL1       -0.0441
      3 C           2.8660    0.3100    0.0000 C.ar    1  UNL1       -0.0473
      4 C           4.5981    0.3100    0.0000 C.ar    1  UNL1       -0.0170
      5 C           2.8660   -0.6900    0.0000 C.ar    1  UNL1       -0.0551
      6 C           3.7320    1.8100    0.0000 C.3     1  UNL1       -0.0393
      7 C           2.0000    0.8100    0.0000 C.3     1  UNL1       -0.0395
      8 C           4.5981   -0.6900    0.0000 C.ar    1  UNL1        0.1171
      9 C           3.7320   -1.1900    0.0000 C.ar    1  UNL1       -0.0199
     10 H           5.1350    0.6200    0.0000 H       1  UNL1        0.0657
     11 H           2.3291   -1.0000    0.0000 H       1  UNL1        0.0621
     12 H           4.3520    1.8100    0.0000 H       1  UNL1        0.0278
     13 H           3.7320    2.4300    0.0000 H       1  UNL1        0.0278
     14 H           3.1120    1.8100    0.0000 H       1  UNL1        0.0278
     15 H           2.3100    1.3469    0.0000 H       1  UNL1        0.0278
     16 H           1.4631    1.1200    0.0000 H       1  UNL1        0.0278
     17 H           1.6900    0.2731    0.0000 H       1  UNL1        0.0278
     18 H           3.7320   -1.8100    0.0000 H       1  UNL1        0.0654
     19 H           5.4641   -1.8100    0.0000 H       1  UNL1        0.2921
@<TRIPOS>BOND
     1     1     8    1
     2     1    19    1
     3     2     3   ar
     4     2     4   ar
     5     2     6    1
     6     3     5   ar
     7     3     7    1
     8     4     8   ar
     9     4    10    1
    10     5     9   ar
    11     5    11    1
    12     6    12    1
    13     6    13    1
    14     6    14    1
    15     7    15    1
    16     7    16    1
    17     7    17    1
    18     8     9   ar
    19     9    18    1
