@<TRIPOS>MOLECULE
1732
 16 16 0 0 0
SMALL
GASTEIGER

@<TRIPOS>ATOM
      1 CL          2.0000    0.8100    0.0000 Cl      1  UNL1       -0.0833
      2 O           5.4641   -1.1900    0.0000 O.3     1  UNL1       -0.5068
      3 C           3.7320    0.8100    0.0000 C.ar    1  UNL1       -0.0287
      4 C           4.5981    0.3100    0.0000 C.ar    1  UNL1       -0.0159
      5 C           2.8660    0.3100    0.0000 C.ar    1  UNL1        0.0441
      6 C           4.5981   -0.6900    0.0000 C.ar    1  UNL1        0.1172
      7 C           3.7320    1.8100    0.0000 C.3     1  UNL1       -0.0382
      8 C           2.8660   -0.6900    0.0000 C.ar    1  UNL1       -0.0397
      9 C           3.7320   -1.1900    0.0000 C.ar    1  UNL1       -0.0188
     10 H           5.1350    0.6200    0.0000 H       1  UNL1        0.0657
     11 H           4.3520    1.8100    0.0000 H       1  UNL1        0.0278
     12 H           3.7320    2.4300    0.0000 H       1  UNL1        0.0278
     13 H           3.1120    1.8100    0.0000 H       1  UNL1        0.0278
     14 H           2.3291   -1.0000    0.0000 H       1  UNL1        0.0633
     15 H           3.7320   -1.8100    0.0000 H       1  UNL1        0.0654
     16 H           5.4641   -1.8100    0.0000 H       1  UNL1        0.2921
@<TRIPOS>BOND
     1     1     5    1
     2     2     6    1
     3     2    16    1
     4     3     4   ar
     5     3     5   ar
     6     3     7    1
     7     4     6   ar
     8     4    10    1
     9     5     8   ar
    10     6     9   ar
    11     7    11    1
    12     7    12    1
    13     7    13    1
    14     8     9   ar
    15     8    14    1
    16     9    15    1
