@<TRIPOS>MOLECULE
7910
 21 20 0 0 0
SMALL
GASTEIGER

@<TRIPOS>ATOM
      1 O           2.5369    0.7500    0.0000 O.3     1  UNL1       -0.3920
      2 C           5.1350    0.2500    0.0000 C.3     1  UNL1       -0.0444
      3 C           4.2690    0.7500    0.0000 C.3     1  UNL1       -0.0248
      4 C           3.4030    0.2500    0.0000 C.3     1  UNL1        0.0527
      5 C           6.0010    0.7500    0.0000 C.3     1  UNL1       -0.0626
      6 C           5.1350   -0.7500    0.0000 C.3     1  UNL1       -0.0626
      7 C           3.4030   -0.7500    0.0000 C.3     1  UNL1       -0.0389
      8 H           5.1350    0.8700    0.0000 H       1  UNL1        0.0296
      9 H           4.6675    1.2250    0.0000 H       1  UNL1        0.0292
     10 H           3.8705    1.2250    0.0000 H       1  UNL1        0.0292
     11 H           3.4030    1.1000    0.0000 H       1  UNL1        0.0590
     12 H           6.3110    0.2131    0.0000 H       1  UNL1        0.0232
     13 H           6.5380    1.0600    0.0000 H       1  UNL1        0.0232
     14 H           5.6910    1.2869    0.0000 H       1  UNL1        0.0232
     15 H           4.5150   -0.7500    0.0000 H       1  UNL1        0.0232
     16 H           5.1350   -1.3700    0.0000 H       1  UNL1        0.0232
     17 H           5.7550   -0.7500    0.0000 H       1  UNL1        0.0232
     18 H           2.7830   -0.7500    0.0000 H       1  UNL1        0.0254
     19 H           3.4030   -1.3700    0.0000 H       1  UNL1        0.0254
     20 H           4.0230   -0.7500    0.0000 H       1  UNL1        0.0254
     21 H           2.0000    0.4400    0.0000 H       1  UNL1        0.2098
@<TRIPOS>BOND
     1     1     4    1
     2     1    21    1
     3     2     3    1
     4     2     5    1
     5     2     6    1
     6     2     8    1
     7     3     4    1
     8     3     9    1
     9     3    10    1
    10     4     7    1
    11     4    11    1
    12     5    12    1
    13     5    13    1
    14     5    14    1
    15     6    15    1
    16     6    16    1
    17     6    17    1
    18     7    18    1
    19     7    19    1
    20     7    20    1
