@<TRIPOS>MOLECULE
7909
 19 18 0 0 0
SMALL
GASTEIGER

@<TRIPOS>ATOM
      1 O           4.5981   -0.7500    0.0000 O.2     1  UNL1       -0.2977
      2 C           2.8660    0.2500    0.0000 C.3     1  UNL1       -0.0401
      3 C           3.7320    0.7500    0.0000 C.3     1  UNL1        0.0079
      4 C           2.0000    0.7500    0.0000 C.3     1  UNL1       -0.0623
      5 C           2.8660   -0.7500    0.0000 C.3     1  UNL1       -0.0623
      6 C           4.5981    0.2500    0.0000 C.2     1  UNL1        0.1306
      7 C           5.4641    0.7500    0.0000 C.3     1  UNL1       -0.0061
      8 H           2.8660    0.8700    0.0000 H       1  UNL1        0.0299
      9 H           4.1306    1.2250    0.0000 H       1  UNL1        0.0344
     10 H           3.3335    1.2250    0.0000 H       1  UNL1        0.0344
     11 H           2.3100    1.2869    0.0000 H       1  UNL1        0.0232
     12 H           1.4631    1.0600    0.0000 H       1  UNL1        0.0232
     13 H           1.6900    0.2131    0.0000 H       1  UNL1        0.0232
     14 H           2.2460   -0.7500    0.0000 H       1  UNL1        0.0232
     15 H           2.8660   -1.3700    0.0000 H       1  UNL1        0.0232
     16 H           3.4860   -0.7500    0.0000 H       1  UNL1        0.0232
     17 H           5.7741    0.2131    0.0000 H       1  UNL1        0.0306
     18 H           6.0010    1.0600    0.0000 H       1  UNL1        0.0306
     19 H           5.1541    1.2869    0.0000 H       1  UNL1        0.0306
@<TRIPOS>BOND
     1     1     6    2
     2     2     3    1
     3     2     4    1
     4     2     5    1
     5     2     8    1
     6     3     6    1
     7     3     9    1
     8     3    10    1
     9     4    11    1
    10     4    12    1
    11     4    13    1
    12     5    14    1
    13     5    15    1
    14     5    16    1
    15     6     7    1
    16     7    17    1
    17     7    18    1
    18     7    19    1
