@<TRIPOS>MOLECULE
12580
 22 22 0 0 0
SMALL
GASTEIGER

@<TRIPOS>ATOM
      1 O           2.8660   -2.5950    0.0000 O.3     1  UNL1       -0.5068
      2 C           2.8660    1.4050    0.0000 C.3     1  UNL1       -0.0279
      3 C           3.7320    1.9050    0.0000 C.3     1  UNL1       -0.0519
      4 C           2.8660    0.4050    0.0000 C.ar    1  UNL1       -0.0471
      5 C           3.7320   -0.0950    0.0000 C.ar    1  UNL1       -0.0551
      6 C           2.0000   -0.0950    0.0000 C.ar    1  UNL1       -0.0551
      7 C           3.7320    2.9050    0.0000 C.3     1  UNL1       -0.0650
      8 C           3.7320   -1.0950    0.0000 C.ar    1  UNL1       -0.0199
      9 C           2.0000   -1.0950    0.0000 C.ar    1  UNL1       -0.0199
     10 C           2.8660   -1.5950    0.0000 C.ar    1  UNL1        0.1169
     11 H           2.6540    1.9876    0.0000 H       1  UNL1        0.0313
     12 H           2.2554    1.2973    0.0000 H       1  UNL1        0.0313
     13 H           3.9441    1.3224    0.0000 H       1  UNL1        0.0266
     14 H           4.3426    2.0127    0.0000 H       1  UNL1        0.0266
     15 H           4.2690    0.2150    0.0000 H       1  UNL1        0.0621
     16 H           1.4631    0.2150    0.0000 H       1  UNL1        0.0621
     17 H           4.3520    2.9050    0.0000 H       1  UNL1        0.0230
     18 H           3.7320    3.5250    0.0000 H       1  UNL1        0.0230
     19 H           3.1120    2.9050    0.0000 H       1  UNL1        0.0230
     20 H           4.2690   -1.4050    0.0000 H       1  UNL1        0.0654
     21 H           1.4631   -1.4050    0.0000 H       1  UNL1        0.0654
     22 H           2.3291   -2.9050    0.0000 H       1  UNL1        0.2921
@<TRIPOS>BOND
     1     1    10    1
     2     1    22    1
     3     2     3    1
     4     2     4    1
     5     2    11    1
     6     2    12    1
     7     3     7    1
     8     3    13    1
     9     3    14    1
    10     4     5   ar
    11     4     6   ar
    12     5     8   ar
    13     5    15    1
    14     6     9   ar
    15     6    16    1
    16     7    17    1
    17     7    18    1
    18     7    19    1
    19     8    10   ar
    20     8    20    1
    21     9    10   ar
    22     9    21    1
