@<TRIPOS>MOLECULE
7410
 17 17 0 0 0
SMALL
GASTEIGER

@<TRIPOS>ATOM
      1 O           2.0000    1.7500    0.0000 O.2     1  UNL1       -0.2924
      2 C           2.8660    0.2500    0.0000 C.ar    1  UNL1        0.0171
      3 C           3.7320   -0.2500    0.0000 C.ar    1  UNL1       -0.0513
      4 C           2.0000   -0.2500    0.0000 C.ar    1  UNL1       -0.0513
      5 C           2.8660    1.2500    0.0000 C.2     1  UNL1        0.1601
      6 C           3.7320   -1.2500    0.0000 C.ar    1  UNL1       -0.0611
      7 C           2.0000   -1.2500    0.0000 C.ar    1  UNL1       -0.0611
      8 C           2.8660   -1.7500    0.0000 C.ar    1  UNL1       -0.0617
      9 C           3.7320    1.7500    0.0000 C.3     1  UNL1       -0.0014
     10 H           4.2690    0.0600    0.0000 H       1  UNL1        0.0624
     11 H           1.4631    0.0600    0.0000 H       1  UNL1        0.0624
     12 H           4.2690   -1.5600    0.0000 H       1  UNL1        0.0618
     13 H           1.4631   -1.5600    0.0000 H       1  UNL1        0.0618
     14 H           2.8660   -2.3700    0.0000 H       1  UNL1        0.0618
     15 H           4.0420    1.2131    0.0000 H       1  UNL1        0.0309
     16 H           4.2690    2.0600    0.0000 H       1  UNL1        0.0309
     17 H           3.4220    2.2869    0.0000 H       1  UNL1        0.0309
@<TRIPOS>BOND
     1     1     5    2
     2     2     3   ar
     3     2     4   ar
     4     2     5    1
     5     3     6   ar
     6     3    10    1
     7     4     7   ar
     8     4    11    1
     9     5     9    1
    10     6     8   ar
    11     6    12    1
    12     7     8   ar
    13     7    13    1
    14     8    14    1
    15     9    15    1
    16     9    16    1
    17     9    17    1
