@<TRIPOS>MOLECULE
177
 7 6 0 0 0
SMALL
GASTEIGER

@<TRIPOS>ATOM
      1 O           3.7320    0.5600    0.0000 O.2     1  UNL1       -0.3013
      2 C           2.0000    0.5600    0.0000 C.3     1  UNL1       -0.0091
      3 C           2.8660    0.0600    0.0000 C.2     1  UNL1        0.1172
      4 H           2.3100    1.0969    0.0000 H       1  UNL1        0.0303
      5 H           1.4631    0.8700    0.0000 H       1  UNL1        0.0303
      6 H           1.6900    0.0231    0.0000 H       1  UNL1        0.0303
      7 H           2.8660   -0.5600    0.0000 H       1  UNL1        0.1023
@<TRIPOS>BOND
     1     1     3    2
     2     2     3    1
     3     2     4    1
     4     2     5    1
     5     2     6    1
     6     3     7    1
