@<TRIPOS>MOLECULE
7844
 12 11 0 0 0
SMALL
GASTEIGER

@<TRIPOS>ATOM
      1 C           2.8660   -0.2500    0.0000 C.3     1  UNL1       -0.0379
      2 C           2.0000    0.2500    0.0000 C.3     1  UNL1       -0.0618
      3 C           3.7320    0.2500    0.0000 C.2     1  UNL1       -0.0914
      4 C           4.5981   -0.2500    0.0000 C.2     1  UNL1       -0.1026
      5 H           2.4675   -0.7249    0.0000 H       1  UNL1        0.0305
      6 H           3.2646   -0.7249    0.0000 H       1  UNL1        0.0305
      7 H           2.3100    0.7869    0.0000 H       1  UNL1        0.0233
      8 H           1.4631    0.5600    0.0000 H       1  UNL1        0.0233
      9 H           1.6900   -0.2869    0.0000 H       1  UNL1        0.0233
     10 H           3.7320    0.8700    0.0000 H       1  UNL1        0.0566
     11 H           4.5981   -0.8700    0.0000 H       1  UNL1        0.0532
     12 H           5.1350    0.0600    0.0000 H       1  UNL1        0.0532
@<TRIPOS>BOND
     1     1     2    1
     2     1     3    1
     3     1     5    1
     4     1     6    1
     5     2     7    1
     6     2     8    1
     7     2     9    1
     8     3     4    2
     9     3    10    1
    10     4    11    1
    11     4    12    1
