@<TRIPOS>MOLECULE
263
 15 14 0 0 0
SMALL
GASTEIGER

@<TRIPOS>ATOM
      1 O           5.4641   -0.2500    0.0000 O.3     1  UNL1       -0.3950
      2 C           3.7320   -0.2500    0.0000 C.3     1  UNL1       -0.0300
      3 C           2.8660    0.2500    0.0000 C.3     1  UNL1       -0.0538
      4 C           4.5981    0.2500    0.0000 C.3     1  UNL1        0.0442
      5 C           2.0000   -0.2500    0.0000 C.3     1  UNL1       -0.0652
      6 H           3.3335   -0.7249    0.0000 H       1  UNL1        0.0287
      7 H           4.1306   -0.7249    0.0000 H       1  UNL1        0.0287
      8 H           3.2646    0.7249    0.0000 H       1  UNL1        0.0263
      9 H           2.4675    0.7249    0.0000 H       1  UNL1        0.0263
     10 H           4.9966    0.7249    0.0000 H       1  UNL1        0.0557
     11 H           4.1996    0.7249    0.0000 H       1  UNL1        0.0557
     12 H           1.6900    0.2869    0.0000 H       1  UNL1        0.0230
     13 H           1.4631   -0.5600    0.0000 H       1  UNL1        0.0230
     14 H           2.3100   -0.7869    0.0000 H       1  UNL1        0.0230
     15 H           6.0010    0.0600    0.0000 H       1  UNL1        0.2094
@<TRIPOS>BOND
     1     1     4    1
     2     1    15    1
     3     2     3    1
     4     2     4    1
     5     2     6    1
     6     2     7    1
     7     3     5    1
     8     3     8    1
     9     3     9    1
    10     4    10    1
    11     4    11    1
    12     5    12    1
    13     5    13    1
    14     5    14    1
