@<TRIPOS>MOLECULE
6337
 8 7 0 0 0
SMALL
GASTEIGER

@<TRIPOS>ATOM
      1 CL          3.7320    0.2500    0.0000 Cl      1  UNL1       -0.1257
      2 C           2.8660   -0.2500    0.0000 C.3     1  UNL1        0.0198
      3 C           2.0000    0.2500    0.0000 C.3     1  UNL1       -0.0517
      4 H           2.4675   -0.7249    0.0000 H       1  UNL1        0.0427
      5 H           3.2646   -0.7249    0.0000 H       1  UNL1        0.0427
      6 H           2.3100    0.7869    0.0000 H       1  UNL1        0.0241
      7 H           1.4631    0.5600    0.0000 H       1  UNL1        0.0241
      8 H           1.6900   -0.2869    0.0000 H       1  UNL1        0.0241
@<TRIPOS>BOND
     1     1     2    1
     2     2     3    1
     3     2     4    1
     4     2     5    1
     5     3     6    1
     6     3     7    1
     7     3     8    1
