@<TRIPOS>MOLECULE
7964
 12 12 0 0 0
SMALL
GASTEIGER

@<TRIPOS>ATOM
      1 CL          2.8660    1.5000    0.0000 Cl      1  UNL1       -0.0835
      2 C           2.8660    0.5000    0.0000 C.ar    1  UNL1        0.0410
      3 C           2.0000    0.0000    0.0000 C.ar    1  UNL1       -0.0434
      4 C           3.7320   -0.0000    0.0000 C.ar    1  UNL1       -0.0434
      5 C           2.0000   -1.0000    0.0000 C.ar    1  UNL1       -0.0604
      6 C           3.7320   -1.0000    0.0000 C.ar    1  UNL1       -0.0604
      7 C           2.8660   -1.5000    0.0000 C.ar    1  UNL1       -0.0617
      8 H           1.4631    0.3100    0.0000 H       1  UNL1        0.0632
      9 H           4.2690    0.3100    0.0000 H       1  UNL1        0.0632
     10 H           1.4631   -1.3100    0.0000 H       1  UNL1        0.0618
     11 H           4.2690   -1.3100    0.0000 H       1  UNL1        0.0618
     12 H           2.8660   -2.1200    0.0000 H       1  UNL1        0.0618
@<TRIPOS>BOND
     1     1     2    1
     2     2     3   ar
     3     2     4   ar
     4     3     5   ar
     5     3     8    1
     6     4     6   ar
     7     4     9    1
     8     5     7   ar
     9     5    10    1
    10     6     7   ar
    11     6    11    1
    12     7    12    1
