@<TRIPOS>MOLECULE
8909
 27 26 0 0 0
SMALL
GASTEIGER

@<TRIPOS>ATOM
      1 O           5.4641   -0.2500    0.0000 O.3     1  UNL1       -0.3798
      2 C           7.1962   -0.2500    0.0000 C.3     1  UNL1       -0.0297
      3 C           3.7320   -0.2500    0.0000 C.3     1  UNL1       -0.0297
      4 C           6.3301    0.2500    0.0000 C.3     1  UNL1        0.0477
      5 C           4.5981    0.2500    0.0000 C.3     1  UNL1        0.0477
      6 C           8.0622    0.2500    0.0000 C.3     1  UNL1       -0.0538
      7 C           2.8660    0.2500    0.0000 C.3     1  UNL1       -0.0538
      8 C           8.9282   -0.2500    0.0000 C.3     1  UNL1       -0.0652
      9 C           2.0000   -0.2500    0.0000 C.3     1  UNL1       -0.0652
     10 H           6.7976   -0.7249    0.0000 H       1  UNL1        0.0287
     11 H           7.5947   -0.7249    0.0000 H       1  UNL1        0.0287
     12 H           3.3335   -0.7249    0.0000 H       1  UNL1        0.0287
     13 H           4.1306   -0.7249    0.0000 H       1  UNL1        0.0287
     14 H           6.7287    0.7249    0.0000 H       1  UNL1        0.0560
     15 H           5.9316    0.7249    0.0000 H       1  UNL1        0.0560
     16 H           4.9966    0.7249    0.0000 H       1  UNL1        0.0560
     17 H           4.1996    0.7249    0.0000 H       1  UNL1        0.0560
     18 H           8.4607    0.7249    0.0000 H       1  UNL1        0.0263
     19 H           7.6636    0.7249    0.0000 H       1  UNL1        0.0263
     20 H           3.2646    0.7249    0.0000 H       1  UNL1        0.0263
     21 H           2.4675    0.7249    0.0000 H       1  UNL1        0.0263
     22 H           8.6182   -0.7869    0.0000 H       1  UNL1        0.0230
     23 H           9.4651   -0.5600    0.0000 H       1  UNL1        0.0230
     24 H           9.2382    0.2869    0.0000 H       1  UNL1        0.0230
     25 H           1.6900    0.2869    0.0000 H       1  UNL1        0.0230
     26 H           1.4631   -0.5600    0.0000 H       1  UNL1        0.0230
     27 H           2.3100   -0.7869    0.0000 H       1  UNL1        0.0230
@<TRIPOS>BOND
     1     1     4    1
     2     1     5    1
     3     2     4    1
     4     2     6    1
     5     2    10    1
     6     2    11    1
     7     3     5    1
     8     3     7    1
     9     3    12    1
    10     3    13    1
    11     4    14    1
    12     4    15    1
    13     5    16    1
    14     5    17    1
    15     6     8    1
    16     6    18    1
    17     6    19    1
    18     7     9    1
    19     7    20    1
    20     7    21    1
    21     8    22    1
    22     8    23    1
    23     8    24    1
    24     9    25    1
    25     9    26    1
    26     9    27    1
