@<TRIPOS>MOLECULE
6344
 5 4 0 0 0
SMALL
GASTEIGER

@<TRIPOS>ATOM
      1 CL          3.7320    0.2500    0.0000 Cl      1  UNL1       -0.1083
      2 CL          2.0000    0.2500    0.0000 Cl      1  UNL1       -0.1083
      3 C           2.8660   -0.2500    0.0000 C.3     1  UNL1        0.0970
      4 H           2.4675   -0.7249    0.0000 H       1  UNL1        0.0597
      5 H           3.2646   -0.7249    0.0000 H       1  UNL1        0.0597
@<TRIPOS>BOND
     1     1     3    1
     2     2     3    1
     3     3     4    1
     4     3     5    1
