@<TRIPOS>MOLECULE
7914
 21 20 0 0 0
SMALL
GASTEIGER

@<TRIPOS>ATOM
      1 O           3.7320    0.7500    0.0000 O.3     1  UNL1       -0.3744
      2 C           2.8660    0.2500    0.0000 C.3     1  UNL1        0.0534
      3 C           4.5981    0.2500    0.0000 C.3     1  UNL1        0.0534
      4 C           2.0000    0.7500    0.0000 C.3     1  UNL1       -0.0389
      5 C           2.8660   -0.7500    0.0000 C.3     1  UNL1       -0.0389
      6 C           5.4641    0.7500    0.0000 C.3     1  UNL1       -0.0389
      7 C           4.5981   -0.7500    0.0000 C.3     1  UNL1       -0.0389
      8 H           2.8660    0.8700    0.0000 H       1  UNL1        0.0590
      9 H           4.5981    0.8700    0.0000 H       1  UNL1        0.0590
     10 H           2.3100    1.2869    0.0000 H       1  UNL1        0.0254
     11 H           1.4631    1.0600    0.0000 H       1  UNL1        0.0254
     12 H           1.6900    0.2131    0.0000 H       1  UNL1        0.0254
     13 H           2.2460   -0.7500    0.0000 H       1  UNL1        0.0254
     14 H           2.8660   -1.3700    0.0000 H       1  UNL1        0.0254
     15 H           3.4860   -0.7500    0.0000 H       1  UNL1        0.0254
     16 H           5.7741    0.2131    0.0000 H       1  UNL1        0.0254
     17 H           6.0010    1.0600    0.0000 H       1  UNL1        0.0254
     18 H           5.1541    1.2869    0.0000 H       1  UNL1        0.0254
     19 H           3.9781   -0.7500    0.0000 H       1  UNL1        0.0254
     20 H           4.5981   -1.3700    0.0000 H       1  UNL1        0.0254
     21 H           5.2181   -0.7500    0.0000 H       1  UNL1        0.0254
@<TRIPOS>BOND
     1     1     2    1
     2     1     3    1
     3     2     4    1
     4     2     5    1
     5     2     8    1
     6     3     6    1
     7     3     7    1
     8     3     9    1
     9     4    10    1
    10     4    11    1
    11     4    12    1
    12     5    13    1
    13     5    14    1
    14     5    15    1
    15     6    16    1
    16     6    17    1
    17     6    18    1
    18     7    19    1
    19     7    20    1
    20     7    21    1
