@<TRIPOS>MOLECULE
447466
 11 10 0 0 0
SMALL
GASTEIGER

@<TRIPOS>ATOM
      1 O           5.4641   -0.2500    0.0000 O.2     1  UNL1       -0.2963
      2 C           2.8660    0.2500    0.0000 C.2     1  UNL1       -0.0841
      3 C           2.0000   -0.2500    0.0000 C.3     1  UNL1       -0.0464
      4 C           3.7320   -0.2500    0.0000 C.2     1  UNL1       -0.0266
      5 C           4.5981    0.2500    0.0000 C.2     1  UNL1        0.1428
      6 H           2.8660    0.8700    0.0000 H       1  UNL1        0.0570
      7 H           1.6900    0.2869    0.0000 H       1  UNL1        0.0272
      8 H           1.4631   -0.5600    0.0000 H       1  UNL1        0.0272
      9 H           2.3100   -0.7869    0.0000 H       1  UNL1        0.0272
     10 H           3.7320   -0.8700    0.0000 H       1  UNL1        0.0646
     11 H           4.5981    0.8700    0.0000 H       1  UNL1        0.1075
@<TRIPOS>BOND
     1     1     5    2
     2     2     3    1
     3     2     4    2
     4     2     6    1
     5     3     7    1
     6     3     8    1
     7     3     9    1
     8     4     5    1
     9     4    10    1
    10     5    11    1
