@<TRIPOS>MOLECULE
702
 9 8 0 0 0
SMALL
GASTEIGER

@<TRIPOS>ATOM
      1 O           3.7320    0.2500    0.0000 O.3     1  UNL1       -0.3953
      2 C           2.8660   -0.2500    0.0000 C.3     1  UNL1        0.0414
      3 C           2.0000    0.2500    0.0000 C.3     1  UNL1       -0.0418
      4 H           2.4675   -0.7249    0.0000 H       1  UNL1        0.0554
      5 H           3.2646   -0.7249    0.0000 H       1  UNL1        0.0554
      6 H           2.3100    0.7869    0.0000 H       1  UNL1        0.0252
      7 H           1.4631    0.5600    0.0000 H       1  UNL1        0.0252
      8 H           1.6900   -0.2869    0.0000 H       1  UNL1        0.0252
      9 H           4.2690   -0.0600    0.0000 H       1  UNL1        0.2094
@<TRIPOS>BOND
     1     1     2    1
     2     1     9    1
     3     2     3    1
     4     2     4    1
     5     2     5    1
     6     3     6    1
     7     3     7    1
     8     3     8    1
