@<TRIPOS>MOLECULE
6324
 8 7 0 0 0
SMALL
GASTEIGER

@<TRIPOS>ATOM
      1 C           2.0000    0.0000    0.0000 C.3     1  UNL1       -0.0681
      2 C           3.0000    0.0000    0.0000 C.3     1  UNL1       -0.0681
      3 H           2.0000    0.6200    0.0000 H       1  UNL1        0.0227
      4 H           1.3800    0.0000    0.0000 H       1  UNL1        0.0227
      5 H           2.0000   -0.6200    0.0000 H       1  UNL1        0.0227
      6 H           3.0000   -0.6200    0.0000 H       1  UNL1        0.0227
      7 H           3.6200   -0.0000    0.0000 H       1  UNL1        0.0227
      8 H           3.0000    0.6200    0.0000 H       1  UNL1        0.0227
@<TRIPOS>BOND
     1     1     2    1
     2     1     3    1
     3     1     4    1
     4     1     5    1
     5     2     6    1
     6     2     7    1
     7     2     8    1
