@<TRIPOS>MOLECULE
6325
 6 5 0 0 0
SMALL
GASTEIGER

@<TRIPOS>ATOM
      1 C           2.0000    0.0000    0.0000 C.2     1  UNL1       -0.1058
      2 C           3.0000    0.0000    0.0000 C.2     1  UNL1       -0.1058
      3 H           1.6900    0.5369    0.0000 H       1  UNL1        0.0529
      4 H           1.6900   -0.5369    0.0000 H       1  UNL1        0.0529
      5 H           3.3100   -0.5369    0.0000 H       1  UNL1        0.0529
      6 H           3.3100    0.5369    0.0000 H       1  UNL1        0.0529
@<TRIPOS>BOND
     1     1     2    2
     2     1     3    1
     3     1     4    1
     4     2     5    1
     5     2     6    1
