@<TRIPOS>MOLECULE
7500
 18 18 0 0 0
SMALL
GASTEIGER

@<TRIPOS>ATOM
      1 C           2.8660    1.2500    0.0000 C.3     1  UNL1       -0.0305
      2 C           2.8660    0.2500    0.0000 C.ar    1  UNL1       -0.0476
      3 C           2.0000   -0.2500    0.0000 C.ar    1  UNL1       -0.0586
      4 C           3.7320   -0.2500    0.0000 C.ar    1  UNL1       -0.0586
      5 C           3.7320    1.7500    0.0000 C.3     1  UNL1       -0.0613
      6 C           2.0000   -1.2500    0.0000 C.ar    1  UNL1       -0.0615
      7 C           3.7320   -1.2500    0.0000 C.ar    1  UNL1       -0.0615
      8 C           2.8660   -1.7500    0.0000 C.ar    1  UNL1       -0.0617
      9 H           2.6540    1.8326    0.0000 H       1  UNL1        0.0311
     10 H           2.2554    1.1423    0.0000 H       1  UNL1        0.0311
     11 H           1.4631    0.0600    0.0000 H       1  UNL1        0.0620
     12 H           4.2690    0.0600    0.0000 H       1  UNL1        0.0620
     13 H           4.0420    1.2131    0.0000 H       1  UNL1        0.0233
     14 H           4.2690    2.0600    0.0000 H       1  UNL1        0.0233
     15 H           3.4220    2.2869    0.0000 H       1  UNL1        0.0233
     16 H           1.4631   -1.5600    0.0000 H       1  UNL1        0.0618
     17 H           4.2690   -1.5600    0.0000 H       1  UNL1        0.0618
     18 H           2.8660   -2.3700    0.0000 H       1  UNL1        0.0618
@<TRIPOS>BOND
     1     1     2    1
     2     1     5    1
     3     1     9    1
     4     1    10    1
     5     2     3   ar
     6     2     4   ar
     7     3     6   ar
     8     3    11    1
     9     4     7   ar
    10     4    12    1
    11     5    13    1
    12     5    14    1
    13     5    15    1
    14     6     8   ar
    15     6    16    1
    16     7     8   ar
    17     7    17    1
    18     8    18    1
