@<TRIPOS>MOLECULE
7674
 19 19 0 0 0
SMALL
GASTEIGER

@<TRIPOS>ATOM
      1 O           2.8660    0.7500    0.0000 O.3     1  UNL1       -0.4922
      2 C           2.8660   -0.2500    0.0000 C.ar    1  UNL1        0.1205
      3 C           3.7320    1.2500    0.0000 C.3     1  UNL1        0.0868
      4 C           2.0000   -0.7500    0.0000 C.ar    1  UNL1       -0.0199
      5 C           3.7320   -0.7500    0.0000 C.ar    1  UNL1       -0.0199
      6 C           3.7320    2.2500    0.0000 C.3     1  UNL1       -0.0307
      7 C           2.0000   -1.7500    0.0000 C.ar    1  UNL1       -0.0583
      8 C           3.7320   -1.7500    0.0000 C.ar    1  UNL1       -0.0583
      9 C           2.8660   -2.2500    0.0000 C.ar    1  UNL1       -0.0615
     10 H           3.9441    0.6674    0.0000 H       1  UNL1        0.0694
     11 H           4.3426    1.3577    0.0000 H       1  UNL1        0.0694
     12 H           1.4631   -0.4400    0.0000 H       1  UNL1        0.0654
     13 H           4.2690   -0.4400    0.0000 H       1  UNL1        0.0654
     14 H           4.3520    2.2500    0.0000 H       1  UNL1        0.0262
     15 H           3.7320    2.8700    0.0000 H       1  UNL1        0.0262
     16 H           3.1120    2.2500    0.0000 H       1  UNL1        0.0262
     17 H           1.4631   -2.0600    0.0000 H       1  UNL1        0.0619
     18 H           4.2690   -2.0600    0.0000 H       1  UNL1        0.0619
     19 H           2.8660   -2.8700    0.0000 H       1  UNL1        0.0618
@<TRIPOS>BOND
     1     1     2    1
     2     1     3    1
     3     2     4   ar
     4     2     5   ar
     5     3     6    1
     6     3    10    1
     7     3    11    1
     8     4     7   ar
     9     4    12    1
    10     5     8   ar
    11     5    13    1
    12     6    14    1
    13     6    15    1
    14     6    16    1
    15     7     9   ar
    16     7    17    1
    17     8     9   ar
    18     8    18    1
    19     9    19    1
