@<TRIPOS>MOLECULE
11597
 18 17 0 0 0
SMALL
GASTEIGER

@<TRIPOS>ATOM
      1 C           3.7320   -0.2500    0.0000 C.3     1  UNL1       -0.0499
      2 C           2.8660    0.2500    0.0000 C.3     1  UNL1       -0.0556
      3 C           4.5981    0.2500    0.0000 C.3     1  UNL1       -0.0350
      4 C           2.0000   -0.2500    0.0000 C.3     1  UNL1       -0.0653
      5 C           5.4641   -0.2500    0.0000 C.2     1  UNL1       -0.0911
      6 C           6.3301    0.2500    0.0000 C.2     1  UNL1       -0.1026
      7 H           3.3335   -0.7249    0.0000 H       1  UNL1        0.0268
      8 H           4.1306   -0.7249    0.0000 H       1  UNL1        0.0268
      9 H           3.2646    0.7249    0.0000 H       1  UNL1        0.0263
     10 H           2.4675    0.7249    0.0000 H       1  UNL1        0.0263
     11 H           4.9966    0.7249    0.0000 H       1  UNL1        0.0307
     12 H           4.1996    0.7249    0.0000 H       1  UNL1        0.0307
     13 H           1.6900    0.2869    0.0000 H       1  UNL1        0.0230
     14 H           1.4631   -0.5600    0.0000 H       1  UNL1        0.0230
     15 H           2.3100   -0.7869    0.0000 H       1  UNL1        0.0230
     16 H           5.4641   -0.8700    0.0000 H       1  UNL1        0.0566
     17 H           6.8671   -0.0600    0.0000 H       1  UNL1        0.0532
     18 H           6.3301    0.8700    0.0000 H       1  UNL1        0.0532
@<TRIPOS>BOND
     1     1     2    1
     2     1     3    1
     3     1     7    1
     4     1     8    1
     5     2     4    1
     6     2     9    1
     7     2    10    1
     8     3     5    1
     9     3    11    1
    10     3    12    1
    11     4    13    1
    12     4    14    1
    13     4    15    1
    14     5     6    2
    15     5    16    1
    16     6    17    1
    17     6    18    1
