@<TRIPOS>MOLECULE
11583
 19 18 0 0 0
SMALL
GASTEIGER

@<TRIPOS>ATOM
      1 O           2.8660   -0.7500    0.0000 O.2     1  UNL1       -0.2977
      2 C           4.5981    0.2500    0.0000 C.3     1  UNL1       -0.0466
      3 C           5.4641    0.7500    0.0000 C.3     1  UNL1       -0.0555
      4 C           3.7320    0.7500    0.0000 C.3     1  UNL1        0.0055
      5 C           6.3301    0.2500    0.0000 C.3     1  UNL1       -0.0653
      6 C           2.8660    0.2500    0.0000 C.2     1  UNL1        0.1303
      7 C           2.0000    0.7500    0.0000 C.3     1  UNL1       -0.0061
      8 H           4.1996   -0.2249    0.0000 H       1  UNL1        0.0269
      9 H           4.9966   -0.2249    0.0000 H       1  UNL1        0.0269
     10 H           5.8626    1.2250    0.0000 H       1  UNL1        0.0263
     11 H           5.0656    1.2250    0.0000 H       1  UNL1        0.0263
     12 H           4.1306    1.2250    0.0000 H       1  UNL1        0.0341
     13 H           3.3335    1.2250    0.0000 H       1  UNL1        0.0341
     14 H           6.0201   -0.2869    0.0000 H       1  UNL1        0.0230
     15 H           6.8671   -0.0600    0.0000 H       1  UNL1        0.0230
     16 H           6.6401    0.7869    0.0000 H       1  UNL1        0.0230
     17 H           2.3100    1.2869    0.0000 H       1  UNL1        0.0306
     18 H           1.4631    1.0600    0.0000 H       1  UNL1        0.0306
     19 H           1.6900    0.2131    0.0000 H       1  UNL1        0.0306
@<TRIPOS>BOND
     1     1     6    2
     2     2     3    1
     3     2     4    1
     4     2     8    1
     5     2     9    1
     6     3     5    1
     7     3    10    1
     8     3    11    1
     9     4     6    1
    10     4    12    1
    11     4    13    1
    12     5    14    1
    13     5    15    1
    14     5    16    1
    15     6     7    1
    16     7    17    1
    17     7    18    1
    18     7    19    1
