@<TRIPOS>MOLECULE
11598
 16 15 0 0 0
SMALL
GASTEIGER

@<TRIPOS>ATOM
      1 C           3.7320   -0.2500    0.0000 C.3     1  UNL1       -0.0316
      2 C           4.5981    0.2500    0.0000 C.3     1  UNL1       -0.0316
      3 C           2.8660    0.2500    0.0000 C.2     1  UNL1       -0.0908
      4 C           5.4641   -0.2500    0.0000 C.2     1  UNL1       -0.0908
      5 C           2.0000   -0.2500    0.0000 C.2     1  UNL1       -0.1026
      6 C           6.3301    0.2500    0.0000 C.2     1  UNL1       -0.1026
      7 H           3.3335   -0.7249    0.0000 H       1  UNL1        0.0310
      8 H           4.1306   -0.7249    0.0000 H       1  UNL1        0.0310
      9 H           4.9966    0.7249    0.0000 H       1  UNL1        0.0310
     10 H           4.1996    0.7249    0.0000 H       1  UNL1        0.0310
     11 H           2.8660    0.8700    0.0000 H       1  UNL1        0.0566
     12 H           5.4641   -0.8700    0.0000 H       1  UNL1        0.0566
     13 H           1.4631    0.0600    0.0000 H       1  UNL1        0.0532
     14 H           2.0000   -0.8700    0.0000 H       1  UNL1        0.0532
     15 H           6.8671   -0.0600    0.0000 H       1  UNL1        0.0532
     16 H           6.3301    0.8700    0.0000 H       1  UNL1        0.0532
@<TRIPOS>BOND
     1     1     2    1
     2     1     3    1
     3     1     7    1
     4     1     8    1
     5     2     4    1
     6     2     9    1
     7     2    10    1
     8     3     5    2
     9     3    11    1
    10     4     6    2
    11     4    12    1
    12     5    13    1
    13     5    14    1
    14     6    15    1
    15     6    16    1
