@<TRIPOS>MOLECULE
6561
 13 12 0 0 0
SMALL
GASTEIGER

@<TRIPOS>ATOM
      1 O           4.5981   -0.0600    0.0000 O.2     1  UNL1       -0.3008
      2 C           2.8660   -0.0600    0.0000 C.3     1  UNL1        0.0088
      3 C           2.0000    0.4400    0.0000 C.3     1  UNL1       -0.0562
      4 C           2.8660   -1.0600    0.0000 C.3     1  UNL1       -0.0562
      5 C           3.7320    0.4400    0.0000 C.2     1  UNL1        0.1228
      6 H           2.8660    0.5600    0.0000 H       1  UNL1        0.0369
      7 H           2.3100    0.9769    0.0000 H       1  UNL1        0.0236
      8 H           1.4631    0.7500    0.0000 H       1  UNL1        0.0236
      9 H           1.6900   -0.0969    0.0000 H       1  UNL1        0.0236
     10 H           2.2460   -1.0600    0.0000 H       1  UNL1        0.0236
     11 H           2.8660   -1.6800    0.0000 H       1  UNL1        0.0236
     12 H           3.4860   -1.0600    0.0000 H       1  UNL1        0.0236
     13 H           3.7320    1.0600    0.0000 H       1  UNL1        0.1029
@<TRIPOS>BOND
     1     1     5    2
     2     2     3    1
     3     2     4    1
     4     2     5    1
     5     2     6    1
     6     3     7    1
     7     3     8    1
     8     3     9    1
     9     4    10    1
    10     4    11    1
    11     4    12    1
    12     5    13    1
