@<TRIPOS>MOLECULE
887
 6 5 0 0 0
SMALL
GASTEIGER

@<TRIPOS>ATOM
      1 O           2.5369   -0.2500    0.0000 O.3     1  UNL1       -0.3982
      2 C           3.4030    0.2500    0.0000 C.3     1  UNL1        0.0330
      3 H           3.7130   -0.2869    0.0000 H       1  UNL1        0.0521
      4 H           3.9399    0.5600    0.0000 H       1  UNL1        0.0521
      5 H           3.0930    0.7869    0.0000 H       1  UNL1        0.0521
      6 H           2.0000    0.0600    0.0000 H       1  UNL1        0.2090
@<TRIPOS>BOND
     1     1     2    1
     2     1     6    1
     3     2     3    1
     4     2     4    1
     5     2     5    1
