@<TRIPOS>MOLECULE
10903
 12 11 0 0 0
SMALL
GASTEIGER

@<TRIPOS>ATOM
      1 O           2.8660   -0.2500    0.0000 O.3     1  UNL1       -0.3832
      2 C           3.7320    0.2500    0.0000 C.3     1  UNL1        0.0445
      3 C           4.5981   -0.2500    0.0000 C.3     1  UNL1       -0.0416
      4 C           2.0000    0.2500    0.0000 C.3     1  UNL1        0.0364
      5 H           4.1306    0.7249    0.0000 H       1  UNL1        0.0557
      6 H           3.3335    0.7249    0.0000 H       1  UNL1        0.0557
      7 H           4.2881   -0.7869    0.0000 H       1  UNL1        0.0252
      8 H           5.1350   -0.5600    0.0000 H       1  UNL1        0.0252
      9 H           4.9081    0.2869    0.0000 H       1  UNL1        0.0252
     10 H           2.3100    0.7869    0.0000 H       1  UNL1        0.0523
     11 H           1.4631    0.5600    0.0000 H       1  UNL1        0.0523
     12 H           1.6900   -0.2869    0.0000 H       1  UNL1        0.0523
@<TRIPOS>BOND
     1     1     2    1
     2     1     4    1
     3     2     3    1
     4     2     5    1
     5     2     6    1
     6     3     7    1
     7     3     8    1
     8     3     9    1
     9     4    10    1
    10     4    11    1
    11     4    12    1
