@<TRIPOS>MOLECULE
7705
 24 24 0 0 0
SMALL
GASTEIGER

@<TRIPOS>ATOM
      1 C           3.7320    1.0000    0.0000 C.3     1  UNL1       -0.0493
      2 C           2.8660    0.5000    0.0000 C.3     1  UNL1       -0.0277
      3 C           3.7320    2.0000    0.0000 C.3     1  UNL1       -0.0556
      4 C           2.8660   -0.5000    0.0000 C.ar    1  UNL1       -0.0474
      5 C           4.5981    2.5000    0.0000 C.3     1  UNL1       -0.0653
      6 C           2.0000   -1.0000    0.0000 C.ar    1  UNL1       -0.0586
      7 C           3.7320   -1.0000    0.0000 C.ar    1  UNL1       -0.0586
      8 C           2.0000   -2.0000    0.0000 C.ar    1  UNL1       -0.0615
      9 C           3.7320   -2.0000    0.0000 C.ar    1  UNL1       -0.0615
     10 C           2.8660   -2.5000    0.0000 C.ar    1  UNL1       -0.0617
     11 H           3.9441    0.4174    0.0000 H       1  UNL1        0.0268
     12 H           4.3426    1.1077    0.0000 H       1  UNL1        0.0268
     13 H           2.6540    1.0826    0.0000 H       1  UNL1        0.0313
     14 H           2.2554    0.3923    0.0000 H       1  UNL1        0.0313
     15 H           3.5200    2.5826    0.0000 H       1  UNL1        0.0263
     16 H           3.1215    1.8923    0.0000 H       1  UNL1        0.0263
     17 H           4.9081    1.9631    0.0000 H       1  UNL1        0.0230
     18 H           5.1350    2.8100    0.0000 H       1  UNL1        0.0230
     19 H           4.2881    3.0369    0.0000 H       1  UNL1        0.0230
     20 H           1.4631   -0.6900    0.0000 H       1  UNL1        0.0620
     21 H           4.2690   -0.6900    0.0000 H       1  UNL1        0.0620
     22 H           1.4631   -2.3100    0.0000 H       1  UNL1        0.0618
     23 H           4.2690   -2.3100    0.0000 H       1  UNL1        0.0618
     24 H           2.8660   -3.1200    0.0000 H       1  UNL1        0.0618
@<TRIPOS>BOND
     1     1     2    1
     2     1     3    1
     3     1    11    1
     4     1    12    1
     5     2     4    1
     6     2    13    1
     7     2    14    1
     8     3     5    1
     9     3    15    1
    10     3    16    1
    11     4     6   ar
    12     4     7   ar
    13     5    17    1
    14     5    18    1
    15     5    19    1
    16     6     8   ar
    17     6    20    1
    18     7     9   ar
    19     7    21    1
    20     8    10   ar
    21     8    22    1
    22     9    10   ar
    23     9    23    1
    24    10    24    1
