@<TRIPOS>MOLECULE
14109
 30 30 0 0 0
SMALL
GASTEIGER

@<TRIPOS>ATOM
      1 C           3.7320    1.2500    0.0000 C.3     1  UNL1       -0.0528
      2 C           3.7320    0.2500    0.0000 C.3     1  UNL1       -0.0491
      3 C           4.5981    1.7500    0.0000 C.3     1  UNL1       -0.0533
      4 C           2.8660   -0.2500    0.0000 C.3     1  UNL1       -0.0277
      5 C           4.5981    2.7500    0.0000 C.3     1  UNL1       -0.0559
      6 C           2.8660   -1.2500    0.0000 C.ar    1  UNL1       -0.0474
      7 C           5.4641    3.2500    0.0000 C.3     1  UNL1       -0.0653
      8 C           2.0000   -1.7500    0.0000 C.ar    1  UNL1       -0.0586
      9 C           3.7320   -1.7500    0.0000 C.ar    1  UNL1       -0.0586
     10 C           2.0000   -2.7500    0.0000 C.ar    1  UNL1       -0.0615
     11 C           3.7320   -2.7500    0.0000 C.ar    1  UNL1       -0.0615
     12 C           2.8660   -3.2500    0.0000 C.ar    1  UNL1       -0.0617
     13 H           3.5200    1.8326    0.0000 H       1  UNL1        0.0265
     14 H           3.1215    1.1423    0.0000 H       1  UNL1        0.0265
     15 H           3.9441   -0.3326    0.0000 H       1  UNL1        0.0268
     16 H           4.3426    0.3577    0.0000 H       1  UNL1        0.0268
     17 H           4.8101    1.1674    0.0000 H       1  UNL1        0.0265
     18 H           5.2087    1.8577    0.0000 H       1  UNL1        0.0265
     19 H           2.6540    0.3326    0.0000 H       1  UNL1        0.0313
     20 H           2.2554   -0.3577    0.0000 H       1  UNL1        0.0313
     21 H           4.3860    3.3326    0.0000 H       1  UNL1        0.0263
     22 H           3.9875    2.6423    0.0000 H       1  UNL1        0.0263
     23 H           5.7741    2.7131    0.0000 H       1  UNL1        0.0230
     24 H           6.0010    3.5600    0.0000 H       1  UNL1        0.0230
     25 H           5.1541    3.7869    0.0000 H       1  UNL1        0.0230
     26 H           1.4631   -1.4400    0.0000 H       1  UNL1        0.0620
     27 H           4.2690   -1.4400    0.0000 H       1  UNL1        0.0620
     28 H           1.4631   -3.0600    0.0000 H       1  UNL1        0.0618
     29 H           4.2690   -3.0600    0.0000 H       1  UNL1        0.0618
     30 H           2.8660   -3.8700    0.0000 H       1  UNL1        0.0618
@<TRIPOS>BOND
     1     1     2    1
     2     1     3    1
     3     1    13    1
     4     1    14    1
     5     2     4    1
     6     2    15    1
     7     2    16    1
     8     3     5    1
     9     3    17    1
    10     3    18    1
    11     4     6    1
    12     4    19    1
    13     4    20    1
    14     5     7    1
    15     5    21    1
    16     5    22    1
    17     6     8   ar
    18     6     9   ar
    19     7    23    1
    20     7    24    1
    21     7    25    1
    22     8    10   ar
    23     8    26    1
    24     9    11   ar
    25     9    27    1
    26    10    12   ar
    27    10    28    1
    28    11    12   ar
    29    11    29    1
    30    12    30    1
