@<TRIPOS>MOLECULE
356
 26 25 0 0 0
SMALL
GASTEIGER

@<TRIPOS>ATOM
      1 C           4.5981   -0.2500    0.0000 C.3     1  UNL1       -0.0531
      2 C           5.4641    0.2500    0.0000 C.3     1  UNL1       -0.0531
      3 C           3.7320    0.2500    0.0000 C.3     1  UNL1       -0.0533
      4 C           6.3301   -0.2500    0.0000 C.3     1  UNL1       -0.0533
      5 C           2.8660   -0.2500    0.0000 C.3     1  UNL1       -0.0559
      6 C           7.1962    0.2500    0.0000 C.3     1  UNL1       -0.0559
      7 C           2.0000    0.2500    0.0000 C.3     1  UNL1       -0.0653
      8 C           8.0622   -0.2500    0.0000 C.3     1  UNL1       -0.0653
      9 H           4.1996   -0.7249    0.0000 H       1  UNL1        0.0265
     10 H           4.9966   -0.7249    0.0000 H       1  UNL1        0.0265
     11 H           5.8626    0.7249    0.0000 H       1  UNL1        0.0265
     12 H           5.0656    0.7249    0.0000 H       1  UNL1        0.0265
     13 H           4.1306    0.7249    0.0000 H       1  UNL1        0.0265
     14 H           3.3335    0.7249    0.0000 H       1  UNL1        0.0265
     15 H           5.9316   -0.7249    0.0000 H       1  UNL1        0.0265
     16 H           6.7287   -0.7249    0.0000 H       1  UNL1        0.0265
     17 H           2.4675   -0.7249    0.0000 H       1  UNL1        0.0263
     18 H           3.2646   -0.7249    0.0000 H       1  UNL1        0.0263
     19 H           7.5947    0.7249    0.0000 H       1  UNL1        0.0263
     20 H           6.7976    0.7249    0.0000 H       1  UNL1        0.0263
     21 H           2.3100    0.7869    0.0000 H       1  UNL1        0.0230
     22 H           1.4631    0.5600    0.0000 H       1  UNL1        0.0230
     23 H           1.6900   -0.2869    0.0000 H       1  UNL1        0.0230
     24 H           7.7522   -0.7869    0.0000 H       1  UNL1        0.0230
     25 H           8.5991   -0.5600    0.0000 H       1  UNL1        0.0230
     26 H           8.3722    0.2869    0.0000 H       1  UNL1        0.0230
@<TRIPOS>BOND
     1     1     2    1
     2     1     3    1
     3     1     9    1
     4     1    10    1
     5     2     4    1
     6     2    11    1
     7     2    12    1
     8     3     5    1
     9     3    13    1
    10     3    14    1
    11     4     6    1
    12     4    15    1
    13     4    16    1
    14     5     7    1
    15     5    17    1
    16     5    18    1
    17     6     8    1
    18     6    19    1
    19     6    20    1
    20     7    21    1
    21     7    22    1
    22     7    23    1
    23     8    24    1
    24     8    25    1
    25     8    26    1
