@<TRIPOS>MOLECULE
8003
 17 16 0 0 0
SMALL
GASTEIGER

@<TRIPOS>ATOM
      1 C           3.7320   -0.2500    0.0000 C.3     1  UNL1       -0.0536
      2 C           4.5981    0.2500    0.0000 C.3     1  UNL1       -0.0559
      3 C           2.8660    0.2500    0.0000 C.3     1  UNL1       -0.0559
      4 C           5.4641   -0.2500    0.0000 C.3     1  UNL1       -0.0653
      5 C           2.0000   -0.2500    0.0000 C.3     1  UNL1       -0.0653
      6 H           3.3335   -0.7249    0.0000 H       1  UNL1        0.0265
      7 H           4.1306   -0.7249    0.0000 H       1  UNL1        0.0265
      8 H           4.9966    0.7249    0.0000 H       1  UNL1        0.0263
      9 H           4.1996    0.7249    0.0000 H       1  UNL1        0.0263
     10 H           3.2646    0.7249    0.0000 H       1  UNL1        0.0263
     11 H           2.4675    0.7249    0.0000 H       1  UNL1        0.0263
     12 H           5.1541   -0.7869    0.0000 H       1  UNL1        0.0230
     13 H           6.0010   -0.5600    0.0000 H       1  UNL1        0.0230
     14 H           5.7741    0.2869    0.0000 H       1  UNL1        0.0230
     15 H           1.6900    0.2869    0.0000 H       1  UNL1        0.0230
     16 H           1.4631   -0.5600    0.0000 H       1  UNL1        0.0230
     17 H           2.3100   -0.7869    0.0000 H       1  UNL1        0.0230
@<TRIPOS>BOND
     1     1     2    1
     2     1     3    1
     3     1     6    1
     4     1     7    1
     5     2     4    1
     6     2     8    1
     7     2     9    1
     8     3     5    1
     9     3    10    1
    10     3    11    1
    11     4    12    1
    12     4    13    1
    13     4    14    1
    14     5    15    1
    15     5    16    1
    16     5    17    1
