@<TRIPOS>MOLECULE
7668
 21 21 0 0 0
SMALL
GASTEIGER

@<TRIPOS>ATOM
      1 C           2.8660    0.7500    0.0000 C.3     1  UNL1       -0.0279
      2 C           3.7320    1.2500    0.0000 C.3     1  UNL1       -0.0519
      3 C           2.8660   -0.2500    0.0000 C.ar    1  UNL1       -0.0474
      4 C           3.7320    2.2500    0.0000 C.3     1  UNL1       -0.0650
      5 C           2.0000   -0.7500    0.0000 C.ar    1  UNL1       -0.0586
      6 C           3.7320   -0.7500    0.0000 C.ar    1  UNL1       -0.0586
      7 C           2.0000   -1.7500    0.0000 C.ar    1  UNL1       -0.0615
      8 C           3.7320   -1.7500    0.0000 C.ar    1  UNL1       -0.0615
      9 C           2.8660   -2.2500    0.0000 C.ar    1  UNL1       -0.0617
     10 H           2.6540    1.3326    0.0000 H       1  UNL1        0.0313
     11 H           2.2554    0.6423    0.0000 H       1  UNL1        0.0313
     12 H           3.9441    0.6674    0.0000 H       1  UNL1        0.0266
     13 H           4.3426    1.3577    0.0000 H       1  UNL1        0.0266
     14 H           4.3520    2.2500    0.0000 H       1  UNL1        0.0230
     15 H           3.7320    2.8700    0.0000 H       1  UNL1        0.0230
     16 H           3.1120    2.2500    0.0000 H       1  UNL1        0.0230
     17 H           1.4631   -0.4400    0.0000 H       1  UNL1        0.0620
     18 H           4.2690   -0.4400    0.0000 H       1  UNL1        0.0620
     19 H           1.4631   -2.0600    0.0000 H       1  UNL1        0.0618
     20 H           4.2690   -2.0600    0.0000 H       1  UNL1        0.0618
     21 H           2.8660   -2.8700    0.0000 H       1  UNL1        0.0618
@<TRIPOS>BOND
     1     1     2    1
     2     1     3    1
     3     1    10    1
     4     1    11    1
     5     2     4    1
     6     2    12    1
     7     2    13    1
     8     3     5   ar
     9     3     6   ar
    10     4    14    1
    11     4    15    1
    12     4    16    1
    13     5     7   ar
    14     5    17    1
    15     6     8   ar
    16     6    18    1
    17     7     9   ar
    18     7    19    1
    19     8     9   ar
    20     8    20    1
    21     9    21    1
