@<TRIPOS>MOLECULE
8914
 30 29 0 0 0
SMALL
GASTEIGER

@<TRIPOS>ATOM
      1 O           2.5369   -0.2500    0.0000 O.3     1  UNL1       -0.3950
      2 C           6.8671    0.2500    0.0000 C.3     1  UNL1       -0.0531
      3 C           6.0010   -0.2500    0.0000 C.3     1  UNL1       -0.0530
      4 C           7.7331   -0.2500    0.0000 C.3     1  UNL1       -0.0531
      5 C           5.1350    0.2500    0.0000 C.3     1  UNL1       -0.0510
      6 C           8.5991    0.2500    0.0000 C.3     1  UNL1       -0.0533
      7 C           4.2690   -0.2500    0.0000 C.3     1  UNL1       -0.0297
      8 C           9.4651   -0.2500    0.0000 C.3     1  UNL1       -0.0559
      9 C           3.4030    0.2500    0.0000 C.3     1  UNL1        0.0442
     10 C          10.3312    0.2500    0.0000 C.3     1  UNL1       -0.0653
     11 H           7.2656    0.7249    0.0000 H       1  UNL1        0.0265
     12 H           6.4685    0.7249    0.0000 H       1  UNL1        0.0265
     13 H           5.6025   -0.7249    0.0000 H       1  UNL1        0.0265
     14 H           6.3996   -0.7249    0.0000 H       1  UNL1        0.0265
     15 H           7.3346   -0.7249    0.0000 H       1  UNL1        0.0265
     16 H           8.1316   -0.7249    0.0000 H       1  UNL1        0.0265
     17 H           5.5335    0.7249    0.0000 H       1  UNL1        0.0266
     18 H           4.7365    0.7249    0.0000 H       1  UNL1        0.0266
     19 H           8.9976    0.7249    0.0000 H       1  UNL1        0.0265
     20 H           8.2006    0.7249    0.0000 H       1  UNL1        0.0265
     21 H           3.8705   -0.7249    0.0000 H       1  UNL1        0.0287
     22 H           4.6675   -0.7249    0.0000 H       1  UNL1        0.0287
     23 H           9.0666   -0.7249    0.0000 H       1  UNL1        0.0263
     24 H           9.8637   -0.7249    0.0000 H       1  UNL1        0.0263
     25 H           3.8015    0.7249    0.0000 H       1  UNL1        0.0557
     26 H           3.0044    0.7249    0.0000 H       1  UNL1        0.0557
     27 H          10.6412   -0.2869    0.0000 H       1  UNL1        0.0230
     28 H          10.8681    0.5600    0.0000 H       1  UNL1        0.0230
     29 H          10.0212    0.7869    0.0000 H       1  UNL1        0.0230
     30 H           2.0000    0.0600    0.0000 H       1  UNL1        0.2094
@<TRIPOS>BOND
     1     1     9    1
     2     1    30    1
     3     2     3    1
     4     2     4    1
     5     2    11    1
     6     2    12    1
     7     3     5    1
     8     3    13    1
     9     3    14    1
    10     4     6    1
    11     4    15    1
    12     4    16    1
    13     5     7    1
    14     5    17    1
    15     5    18    1
    16     6     8    1
    17     6    19    1
    18     6    20    1
    19     7     9    1
    20     7    21    1
    21     7    22    1
    22     8    10    1
    23     8    23    1
    24     8    24    1
    25     9    25    1
    26     9    26    1
    27    10    27    1
    28    10    28    1
    29    10    29    1
