@<TRIPOS>MOLECULE
7237
 18 18 0 0 0
SMALL
GASTEIGER

@<TRIPOS>ATOM
      1 C           2.8660    0.0000    0.0000 C.ar    1  UNL1       -0.0475
      2 C           3.7320    0.5000    0.0000 C.ar    1  UNL1       -0.0475
      3 C           2.8660   -1.0000    0.0000 C.ar    1  UNL1       -0.0586
      4 C           4.5981   -0.0000    0.0000 C.ar    1  UNL1       -0.0586
      5 C           2.0000    0.5000    0.0000 C.3     1  UNL1       -0.0395
      6 C           3.7320    1.5000    0.0000 C.3     1  UNL1       -0.0395
      7 C           3.7320   -1.5000    0.0000 C.ar    1  UNL1       -0.0615
      8 C           4.5981   -1.0000    0.0000 C.ar    1  UNL1       -0.0615
      9 H           2.3291   -1.3100    0.0000 H       1  UNL1        0.0620
     10 H           5.1350    0.3100    0.0000 H       1  UNL1        0.0620
     11 H           2.3100    1.0369    0.0000 H       1  UNL1        0.0278
     12 H           1.4631    0.8100    0.0000 H       1  UNL1        0.0278
     13 H           1.6900   -0.0369    0.0000 H       1  UNL1        0.0278
     14 H           4.3520    1.5000    0.0000 H       1  UNL1        0.0278
     15 H           3.7320    2.1200    0.0000 H       1  UNL1        0.0278
     16 H           3.1120    1.5000    0.0000 H       1  UNL1        0.0278
     17 H           3.7320   -2.1200    0.0000 H       1  UNL1        0.0618
     18 H           5.1350   -1.3100    0.0000 H       1  UNL1        0.0618
@<TRIPOS>BOND
     1     1     2   ar
     2     1     3   ar
     3     1     5    1
     4     2     4   ar
     5     2     6    1
     6     3     7   ar
     7     3     9    1
     8     4     8   ar
     9     4    10    1
    10     5    11    1
    11     5    12    1
    12     5    13    1
    13     6    14    1
    14     6    15    1
    15     6    16    1
    16     7     8   ar
    17     7    17    1
    18     8    18    1
