@<TRIPOS>MOLECULE
8125
 24 23 0 0 0
SMALL
GASTEIGER

@<TRIPOS>ATOM
      1 C           4.5981   -0.2500    0.0000 C.3     1  UNL1       -0.0528
      2 C           3.7320    0.2500    0.0000 C.3     1  UNL1       -0.0533
      3 C           5.4641    0.2500    0.0000 C.3     1  UNL1       -0.0496
      4 C           2.8660   -0.2500    0.0000 C.3     1  UNL1       -0.0559
      5 C           6.3301   -0.2500    0.0000 C.3     1  UNL1       -0.0350
      6 C           2.0000    0.2500    0.0000 C.3     1  UNL1       -0.0653
      7 C           7.1962    0.2500    0.0000 C.2     1  UNL1       -0.0911
      8 C           8.0622   -0.2500    0.0000 C.2     1  UNL1       -0.1026
      9 H           4.1996   -0.7249    0.0000 H       1  UNL1        0.0265
     10 H           4.9966   -0.7249    0.0000 H       1  UNL1        0.0265
     11 H           4.1306    0.7249    0.0000 H       1  UNL1        0.0265
     12 H           3.3335    0.7249    0.0000 H       1  UNL1        0.0265
     13 H           5.8626    0.7249    0.0000 H       1  UNL1        0.0268
     14 H           5.0656    0.7249    0.0000 H       1  UNL1        0.0268
     15 H           2.4675   -0.7249    0.0000 H       1  UNL1        0.0263
     16 H           3.2646   -0.7249    0.0000 H       1  UNL1        0.0263
     17 H           5.9316   -0.7249    0.0000 H       1  UNL1        0.0307
     18 H           6.7287   -0.7249    0.0000 H       1  UNL1        0.0307
     19 H           2.3100    0.7869    0.0000 H       1  UNL1        0.0230
     20 H           1.4631    0.5600    0.0000 H       1  UNL1        0.0230
     21 H           1.6900   -0.2869    0.0000 H       1  UNL1        0.0230
     22 H           7.1962    0.8700    0.0000 H       1  UNL1        0.0566
     23 H           8.0622   -0.8700    0.0000 H       1  UNL1        0.0532
     24 H           8.5991    0.0600    0.0000 H       1  UNL1        0.0532
@<TRIPOS>BOND
     1     1     2    1
     2     1     3    1
     3     1     9    1
     4     1    10    1
     5     2     4    1
     6     2    11    1
     7     2    12    1
     8     3     5    1
     9     3    13    1
    10     3    14    1
    11     4     6    1
    12     4    15    1
    13     4    16    1
    14     5     7    1
    15     5    17    1
    16     5    18    1
    17     6    19    1
    18     6    20    1
    19     6    21    1
    20     7     8    2
    21     7    22    1
    22     8    23    1
    23     8    24    1
