@<TRIPOS>MOLECULE
8093
 25 24 0 0 0
SMALL
GASTEIGER

@<TRIPOS>ATOM
      1 O           2.8660   -0.7500    0.0000 O.2     1  UNL1       -0.2977
      2 C           5.4641    0.7500    0.0000 C.3     1  UNL1       -0.0527
      3 C           6.3301    0.2500    0.0000 C.3     1  UNL1       -0.0533
      4 C           4.5981    0.2500    0.0000 C.3     1  UNL1       -0.0464
      5 C           7.1962    0.7500    0.0000 C.3     1  UNL1       -0.0559
      6 C           3.7320    0.7500    0.0000 C.3     1  UNL1        0.0055
      7 C           8.0622    0.2500    0.0000 C.3     1  UNL1       -0.0653
      8 C           2.8660    0.2500    0.0000 C.2     1  UNL1        0.1303
      9 C           2.0000    0.7500    0.0000 C.3     1  UNL1       -0.0061
     10 H           5.8626    1.2250    0.0000 H       1  UNL1        0.0265
     11 H           5.0656    1.2250    0.0000 H       1  UNL1        0.0265
     12 H           5.9316   -0.2249    0.0000 H       1  UNL1        0.0265
     13 H           6.7287   -0.2249    0.0000 H       1  UNL1        0.0265
     14 H           4.1996   -0.2249    0.0000 H       1  UNL1        0.0269
     15 H           4.9966   -0.2249    0.0000 H       1  UNL1        0.0269
     16 H           7.5947    1.2250    0.0000 H       1  UNL1        0.0263
     17 H           6.7976    1.2250    0.0000 H       1  UNL1        0.0263
     18 H           4.1306    1.2250    0.0000 H       1  UNL1        0.0341
     19 H           3.3335    1.2250    0.0000 H       1  UNL1        0.0341
     20 H           7.7522   -0.2869    0.0000 H       1  UNL1        0.0230
     21 H           8.5991   -0.0600    0.0000 H       1  UNL1        0.0230
     22 H           8.3722    0.7869    0.0000 H       1  UNL1        0.0230
     23 H           2.3100    1.2869    0.0000 H       1  UNL1        0.0306
     24 H           1.4631    1.0600    0.0000 H       1  UNL1        0.0306
     25 H           1.6900    0.2131    0.0000 H       1  UNL1        0.0306
@<TRIPOS>BOND
     1     1     8    2
     2     2     3    1
     3     2     4    1
     4     2    10    1
     5     2    11    1
     6     3     5    1
     7     3    12    1
     8     3    13    1
     9     4     6    1
    10     4    14    1
    11     4    15    1
    12     5     7    1
    13     5    16    1
    14     5    17    1
    15     6     8    1
    16     6    18    1
    17     6    19    1
    18     7    20    1
    19     7    21    1
    20     7    22    1
    21     8     9    1
    22     9    23    1
    23     9    24    1
    24     9    25    1
