@<TRIPOS>MOLECULE
2879
 16 16 0 0 0
SMALL
GASTEIGER

@<TRIPOS>ATOM
      1 O           2.8660    1.8450    0.0000 O.3     1  UNL1       -0.5068
      2 C           2.8660   -1.1550    0.0000 C.ar    1  UNL1       -0.0502
      3 C           3.7320   -0.6550    0.0000 C.ar    1  UNL1       -0.0554
      4 C           2.0000   -0.6550    0.0000 C.ar    1  UNL1       -0.0554
      5 C           3.7320    0.3450    0.0000 C.ar    1  UNL1       -0.0199
      6 C           2.0000    0.3450    0.0000 C.ar    1  UNL1       -0.0199
      7 C           2.8660    0.8450    0.0000 C.ar    1  UNL1        0.1169
      8 C           2.8660   -2.1550    0.0000 C.3     1  UNL1       -0.0397
      9 H           4.2690   -0.9650    0.0000 H       1  UNL1        0.0621
     10 H           1.4631   -0.9650    0.0000 H       1  UNL1        0.0621
     11 H           4.2690    0.6550    0.0000 H       1  UNL1        0.0654
     12 H           1.4631    0.6550    0.0000 H       1  UNL1        0.0654
     13 H           2.2460   -2.1550    0.0000 H       1  UNL1        0.0278
     14 H           2.8660   -2.7750    0.0000 H       1  UNL1        0.0278
     15 H           3.4860   -2.1550    0.0000 H       1  UNL1        0.0278
     16 H           3.4030    2.1550    0.0000 H       1  UNL1        0.2921
@<TRIPOS>BOND
     1     1     7    1
     2     1    16    1
     3     2     3   ar
     4     2     4   ar
     5     2     8    1
     6     3     5   ar
     7     3     9    1
     8     4     6   ar
     9     4    10    1
    10     5     7   ar
    11     5    11    1
    12     6     7   ar
    13     6    12    1
    14     8    13    1
    15     8    14    1
    16     8    15    1
