@<TRIPOS>MOLECULE
7288
 16 15 0 0 0
SMALL
GASTEIGER

@<TRIPOS>ATOM
      1 O           3.7320   -0.7500    0.0000 O.2     1  UNL1       -0.2974
      2 C           4.5981    0.7500    0.0000 C.3     1  UNL1        0.0030
      3 C           2.8660    0.7500    0.0000 C.3     1  UNL1        0.0030
      4 C           3.7320    0.2500    0.0000 C.2     1  UNL1        0.1329
      5 C           5.4641    0.2500    0.0000 C.3     1  UNL1       -0.0586
      6 C           2.0000    0.2500    0.0000 C.3     1  UNL1       -0.0586
      7 H           4.9966    1.2250    0.0000 H       1  UNL1        0.0339
      8 H           4.1996    1.2250    0.0000 H       1  UNL1        0.0339
      9 H           3.2646    1.2250    0.0000 H       1  UNL1        0.0339
     10 H           2.4675    1.2250    0.0000 H       1  UNL1        0.0339
     11 H           5.1541   -0.2869    0.0000 H       1  UNL1        0.0234
     12 H           6.0010   -0.0600    0.0000 H       1  UNL1        0.0234
     13 H           5.7741    0.7869    0.0000 H       1  UNL1        0.0234
     14 H           1.6900    0.7869    0.0000 H       1  UNL1        0.0234
     15 H           1.4631   -0.0600    0.0000 H       1  UNL1        0.0234
     16 H           2.3100   -0.2869    0.0000 H       1  UNL1        0.0234
@<TRIPOS>BOND
     1     1     4    2
     2     2     4    1
     3     2     5    1
     4     2     7    1
     5     2     8    1
     6     3     4    1
     7     3     6    1
     8     3     9    1
     9     3    10    1
    10     5    11    1
    11     5    12    1
    12     5    13    1
    13     6    14    1
    14     6    15    1
    15     6    16    1
