@<TRIPOS>MOLECULE
8004
 15 14 0 0 0
SMALL
GASTEIGER

@<TRIPOS>ATOM
      1 C           4.5981    0.2500    0.0000 C.3     1  UNL1       -0.0525
      2 C           3.7320   -0.2500    0.0000 C.3     1  UNL1       -0.0353
      3 C           5.4641   -0.2500    0.0000 C.3     1  UNL1       -0.0650
      4 C           2.8660    0.2500    0.0000 C.2     1  UNL1       -0.0911
      5 C           2.0000   -0.2500    0.0000 C.2     1  UNL1       -0.1026
      6 H           4.9966    0.7249    0.0000 H       1  UNL1        0.0266
      7 H           4.1996    0.7249    0.0000 H       1  UNL1        0.0266
      8 H           3.3335   -0.7249    0.0000 H       1  UNL1        0.0307
      9 H           4.1306   -0.7249    0.0000 H       1  UNL1        0.0307
     10 H           5.1541   -0.7869    0.0000 H       1  UNL1        0.0230
     11 H           6.0010   -0.5600    0.0000 H       1  UNL1        0.0230
     12 H           5.7741    0.2869    0.0000 H       1  UNL1        0.0230
     13 H           2.8660    0.8700    0.0000 H       1  UNL1        0.0566
     14 H           1.4631    0.0600    0.0000 H       1  UNL1        0.0532
     15 H           2.0000   -0.8700    0.0000 H       1  UNL1        0.0532
@<TRIPOS>BOND
     1     1     2    1
     2     1     3    1
     3     1     6    1
     4     1     7    1
     5     2     4    1
     6     2     8    1
     7     2     9    1
     8     3    10    1
     9     3    11    1
    10     3    12    1
    11     4     5    2
    12     4    13    1
    13     5    14    1
    14     5    15    1
