@<TRIPOS>MOLECULE
6276
 18 17 0 0 0
SMALL
GASTEIGER

@<TRIPOS>ATOM
      1 O           2.5369   -0.2500    0.0000 O.3     1  UNL1       -0.3950
      2 C           5.1350    0.2500    0.0000 C.3     1  UNL1       -0.0512
      3 C           4.2690   -0.2500    0.0000 C.3     1  UNL1       -0.0297
      4 C           6.0010   -0.2500    0.0000 C.3     1  UNL1       -0.0558
      5 C           3.4030    0.2500    0.0000 C.3     1  UNL1        0.0442
      6 C           6.8671    0.2500    0.0000 C.3     1  UNL1       -0.0653
      7 H           5.5335    0.7249    0.0000 H       1  UNL1        0.0266
      8 H           4.7365    0.7249    0.0000 H       1  UNL1        0.0266
      9 H           3.8705   -0.7249    0.0000 H       1  UNL1        0.0287
     10 H           4.6675   -0.7249    0.0000 H       1  UNL1        0.0287
     11 H           5.6025   -0.7249    0.0000 H       1  UNL1        0.0263
     12 H           6.3996   -0.7249    0.0000 H       1  UNL1        0.0263
     13 H           3.8015    0.7249    0.0000 H       1  UNL1        0.0557
     14 H           3.0044    0.7249    0.0000 H       1  UNL1        0.0557
     15 H           7.1771   -0.2869    0.0000 H       1  UNL1        0.0230
     16 H           7.4040    0.5600    0.0000 H       1  UNL1        0.0230
     17 H           6.5571    0.7869    0.0000 H       1  UNL1        0.0230
     18 H           2.0000    0.0600    0.0000 H       1  UNL1        0.2094
@<TRIPOS>BOND
     1     1     5    1
     2     1    18    1
     3     2     3    1
     4     2     4    1
     5     2     7    1
     6     2     8    1
     7     3     5    1
     8     3     9    1
     9     3    10    1
    10     4     6    1
    11     4    11    1
    12     4    12    1
    13     5    13    1
    14     5    14    1
    15     6    15    1
    16     6    16    1
    17     6    17    1
