@<TRIPOS>MOLECULE
527
 10 9 0 0 0
SMALL
GASTEIGER

@<TRIPOS>ATOM
      1 O           4.5981   -0.5600    0.0000 O.2     1  UNL1       -0.3010
      2 C           2.8660   -0.5600    0.0000 C.3     1  UNL1       -0.0001
      3 C           2.0000   -0.0600    0.0000 C.3     1  UNL1       -0.0588
      4 C           3.7320   -0.0600    0.0000 C.2     1  UNL1        0.1200
      5 H           2.4675   -1.0350    0.0000 H       1  UNL1        0.0336
      6 H           3.2646   -1.0350    0.0000 H       1  UNL1        0.0336
      7 H           2.3100    0.4769    0.0000 H       1  UNL1        0.0234
      8 H           1.4631    0.2500    0.0000 H       1  UNL1        0.0234
      9 H           1.6900   -0.5969    0.0000 H       1  UNL1        0.0234
     10 H           3.7320    0.5600    0.0000 H       1  UNL1        0.1026
@<TRIPOS>BOND
     1     1     4    2
     2     2     3    1
     3     2     4    1
     4     2     5    1
     5     2     6    1
     6     3     7    1
     7     3     8    1
     8     3     9    1
     9     4    10    1
