@<TRIPOS>MOLECULE
1031
 12 11 0 0 0
SMALL
GASTEIGER

@<TRIPOS>ATOM
      1 O           2.5369    0.2500    0.0000 O.3     1  UNL1       -0.3950
      2 C           4.2690    0.2500    0.0000 C.3     1  UNL1       -0.0326
      3 C           3.4030   -0.2500    0.0000 C.3     1  UNL1        0.0440
      4 C           5.1350   -0.2500    0.0000 C.3     1  UNL1       -0.0632
      5 H           4.6675    0.7249    0.0000 H       1  UNL1        0.0285
      6 H           3.8705    0.7249    0.0000 H       1  UNL1        0.0285
      7 H           3.0044   -0.7249    0.0000 H       1  UNL1        0.0557
      8 H           3.8015   -0.7249    0.0000 H       1  UNL1        0.0557
      9 H           4.8250   -0.7869    0.0000 H       1  UNL1        0.0230
     10 H           5.6720   -0.5600    0.0000 H       1  UNL1        0.0230
     11 H           5.4450    0.2869    0.0000 H       1  UNL1        0.0230
     12 H           2.0000   -0.0600    0.0000 H       1  UNL1        0.2094
@<TRIPOS>BOND
     1     1     3    1
     2     1    12    1
     3     2     3    1
     4     2     4    1
     5     2     5    1
     6     2     6    1
     7     3     7    1
     8     3     8    1
     9     4     9    1
    10     4    10    1
    11     4    11    1
