@<TRIPOS>MOLECULE
3776
 12 11 0 0 0
SMALL
GASTEIGER

@<TRIPOS>ATOM
      1 O           3.7320    0.7500    0.0000 O.3     1  UNL1       -0.3923
      2 C           2.8660    0.2500    0.0000 C.3     1  UNL1        0.0496
      3 C           2.0000    0.7500    0.0000 C.3     1  UNL1       -0.0392
      4 C           2.8660   -0.7500    0.0000 C.3     1  UNL1       -0.0392
      5 H           2.8660    0.8700    0.0000 H       1  UNL1        0.0588
      6 H           2.3100    1.2869    0.0000 H       1  UNL1        0.0254
      7 H           1.4631    1.0600    0.0000 H       1  UNL1        0.0254
      8 H           1.6900    0.2131    0.0000 H       1  UNL1        0.0254
      9 H           2.2460   -0.7500    0.0000 H       1  UNL1        0.0254
     10 H           2.8660   -1.3700    0.0000 H       1  UNL1        0.0254
     11 H           3.4860   -0.7500    0.0000 H       1  UNL1        0.0254
     12 H           4.2690    0.4400    0.0000 H       1  UNL1        0.2098
@<TRIPOS>BOND
     1     1     2    1
     2     1    12    1
     3     2     3    1
     4     2     4    1
     5     2     5    1
     6     3     6    1
     7     3     7    1
     8     3     8    1
     9     4     9    1
    10     4    10    1
    11     4    11    1
