@<TRIPOS>MOLECULE
638186
 6 5 0 0 0
SMALL
GASTEIGER

@<TRIPOS>ATOM
      1 CL          2.0000    0.2500    0.0000 Cl      1  UNL1       -0.0911
      2 CL          4.5981   -0.2500    0.0000 Cl      1  UNL1       -0.0911
      3 C           2.8660   -0.2500    0.0000 C.2     1  UNL1        0.0156
      4 C           3.7320    0.2500    0.0000 C.2     1  UNL1        0.0156
      5 H           2.8660   -0.8700    0.0000 H       1  UNL1        0.0754
      6 H           3.7320    0.8700    0.0000 H       1  UNL1        0.0754
@<TRIPOS>BOND
     1     1     3    1
     2     2     4    1
     3     3     4    2
     4     3     5    1
     5     4     6    1
