@<TRIPOS>MOLECULE
6212
 5 4 0 0 0
SMALL
GASTEIGER

@<TRIPOS>ATOM
      1 CL          3.7320    0.7500    0.0000 Cl      1  UNL1       -0.0870
      2 CL          2.0000    0.7500    0.0000 Cl      1  UNL1       -0.0870
      3 CL          2.8660   -0.7500    0.0000 Cl      1  UNL1       -0.0870
      4 C           2.8660    0.2500    0.0000 C.3     1  UNL1        0.1805
      5 H           2.8660    0.8700    0.0000 H       1  UNL1        0.0806
@<TRIPOS>BOND
     1     1     4    1
     2     2     4    1
     3     3     4    1
     4     4     5    1
