@<TRIPOS>MOLECULE
8163
 34 33 0 0 0
SMALL
GASTEIGER

@<TRIPOS>ATOM
      1 O           2.8660   -0.7500    0.0000 O.2     1  UNL1       -0.2977
      2 C           7.1962    0.7500    0.0000 C.3     1  UNL1       -0.0531
      3 C           6.3301    0.2500    0.0000 C.3     1  UNL1       -0.0530
      4 C           8.0622    0.2500    0.0000 C.3     1  UNL1       -0.0531
      5 C           5.4641    0.7500    0.0000 C.3     1  UNL1       -0.0527
      6 C           8.9282    0.7500    0.0000 C.3     1  UNL1       -0.0533
      7 C           4.5981    0.2500    0.0000 C.3     1  UNL1       -0.0464
      8 C           9.7942    0.2500    0.0000 C.3     1  UNL1       -0.0559
      9 C           3.7320    0.7500    0.0000 C.3     1  UNL1        0.0055
     10 C          10.6603    0.7500    0.0000 C.3     1  UNL1       -0.0653
     11 C           2.8660    0.2500    0.0000 C.2     1  UNL1        0.1303
     12 C           2.0000    0.7500    0.0000 C.3     1  UNL1       -0.0061
     13 H           7.5947    1.2250    0.0000 H       1  UNL1        0.0265
     14 H           6.7976    1.2250    0.0000 H       1  UNL1        0.0265
     15 H           5.9316   -0.2249    0.0000 H       1  UNL1        0.0265
     16 H           6.7287   -0.2249    0.0000 H       1  UNL1        0.0265
     17 H           7.6636   -0.2249    0.0000 H       1  UNL1        0.0265
     18 H           8.4607   -0.2249    0.0000 H       1  UNL1        0.0265
     19 H           5.8626    1.2250    0.0000 H       1  UNL1        0.0265
     20 H           5.0656    1.2250    0.0000 H       1  UNL1        0.0265
     21 H           9.3267    1.2250    0.0000 H       1  UNL1        0.0265
     22 H           8.5297    1.2250    0.0000 H       1  UNL1        0.0265
     23 H           4.1996   -0.2249    0.0000 H       1  UNL1        0.0269
     24 H           4.9966   -0.2249    0.0000 H       1  UNL1        0.0269
     25 H           9.3957   -0.2249    0.0000 H       1  UNL1        0.0263
     26 H          10.1928   -0.2249    0.0000 H       1  UNL1        0.0263
     27 H           4.1306    1.2250    0.0000 H       1  UNL1        0.0341
     28 H           3.3335    1.2250    0.0000 H       1  UNL1        0.0341
     29 H          10.9703    0.2131    0.0000 H       1  UNL1        0.0230
     30 H          11.1972    1.0600    0.0000 H       1  UNL1        0.0230
     31 H          10.3503    1.2869    0.0000 H       1  UNL1        0.0230
     32 H           2.3100    1.2869    0.0000 H       1  UNL1        0.0306
     33 H           1.4631    1.0600    0.0000 H       1  UNL1        0.0306
     34 H           1.6900    0.2131    0.0000 H       1  UNL1        0.0306
@<TRIPOS>BOND
     1     1    11    2
     2     2     3    1
     3     2     4    1
     4     2    13    1
     5     2    14    1
     6     3     5    1
     7     3    15    1
     8     3    16    1
     9     4     6    1
    10     4    17    1
    11     4    18    1
    12     5     7    1
    13     5    19    1
    14     5    20    1
    15     6     8    1
    16     6    21    1
    17     6    22    1
    18     7     9    1
    19     7    23    1
    20     7    24    1
    21     8    10    1
    22     8    25    1
    23     8    26    1
    24     9    11    1
    25     9    27    1
    26     9    28    1
    27    10    29    1
    28    10    30    1
    29    10    31    1
    30    11    12    1
    31    12    32    1
    32    12    33    1
    33    12    34    1
