@<TRIPOS>MOLECULE
002dime_5
28   27    1
SMALL
USER_CHARGES


@<TRIPOS>ATOM
      1 C          -1.5340    0.5930    0.0960 C.3       1 UNL        -0.2365 
      2 C          -0.3100    1.5090   -0.0890 C.3       1 UNL        -0.0765 
      3 C           0.3220    1.3100   -1.4800 C.3       1 UNL        -0.2386 
      4 C           0.7150    1.3940    1.0720 C.3       1 UNL        -0.1570 
      5 C           1.3900    0.0300    1.2440 C.2       1 UNL         0.1850 
      6 O           0.8610   -0.8530    1.9220 O.2       1 UNL        -0.3016 
      7 C           2.7440   -0.1750    0.5510 C.3       1 UNL        -0.1564 
      8 C           3.1700   -1.6430    0.2960 C.3       1 UNL        -0.0820 
      9 C           4.6380   -1.7000   -0.1570 C.3       1 UNL        -0.2381 
     10 C           2.2620   -2.3490   -0.7310 C.3       1 UNL        -0.2382 
     11 H          -1.2650   -0.4630    0.0320 H         1 UNL         0.0845 
     12 H          -2.0070    0.7540    1.0660 H         1 UNL         0.0846 
     13 H          -2.2900    0.7820   -0.6670 H         1 UNL         0.0814 
     14 H          -0.6840    2.5360   -0.0620 H         1 UNL         0.0891 
     15 H          -0.3950    1.5280   -2.2730 H         1 UNL         0.0844 
     16 H           1.1750    1.9720   -1.6270 H         1 UNL         0.0799 
     17 H           0.6650    0.2850   -1.6280 H         1 UNL         0.0818 
     18 H           0.2200    1.6340    2.0130 H         1 UNL         0.0983 
     19 H           1.4960    2.1440    0.9470 H         1 UNL         0.0877 
     20 H           2.7430    0.3800   -0.3860 H         1 UNL         0.0912 
     21 H           3.4850    0.3070    1.1880 H         1 UNL         0.1003 
     22 H           3.1040   -2.1940    1.2390 H         1 UNL         0.0925 
     23 H           4.7880   -1.1710   -1.0990 H         1 UNL         0.0785 
     24 H           5.3000   -1.2500    0.5830 H         1 UNL         0.0795 
     25 H           4.9700   -2.7290   -0.3010 H         1 UNL         0.0826 
     26 H           2.2850   -1.8450   -1.6980 H         1 UNL         0.0770 
     27 H           2.5750   -3.3820   -0.8910 H         1 UNL         0.0829 
     28 H           1.2240   -2.3800   -0.4000 H         1 UNL         0.0838 
@<TRIPOS>BOND
     1    1   13 1    
     2    1    2 1    
     3    1   11 1    
     4    1   12 1    
     5    2    3 1    
     6    2   14 1    
     7    2    4 1    
     8    3   15 1    
     9    3   17 1    
    10    3   16 1    
    11    4   19 1    
    12    4    5 1    
    13    4   18 1    
    14    5    7 1    
    15    5    6 2    
    16    7   20 1    
    17    7    8 1    
    18    7   21 1    
    19    8   10 1    
    20    8    9 1    
    21    8   22 1    
    22    9   23 1    
    23    9   25 1    
    24    9   24 1    
    25   10   26 1    
    26   10   27 1    
    27   10   28 1    
@<TRIPOS>SUBSTRUCTURE
     1 UNL         1 GROUP             0       ****    0 ROOT    
