@<TRIPOS>MOLECULE
10977
 17 16 0 0 0
SMALL
GASTEIGER

@<TRIPOS>ATOM
      1 CL          2.0000   -0.2500    0.0000 Cl      1  UNL1       -0.1254
      2 C           4.5981    0.2500    0.0000 C.3     1  UNL1       -0.0522
      3 C           3.7320   -0.2500    0.0000 C.3     1  UNL1       -0.0396
      4 C           5.4641   -0.2500    0.0000 C.3     1  UNL1       -0.0559
      5 C           2.8660    0.2500    0.0000 C.3     1  UNL1        0.0226
      6 C           6.3301    0.2500    0.0000 C.3     1  UNL1       -0.0653
      7 H           4.9966    0.7249    0.0000 H       1  UNL1        0.0266
      8 H           4.1996    0.7249    0.0000 H       1  UNL1        0.0266
      9 H           3.3335   -0.7249    0.0000 H       1  UNL1        0.0277
     10 H           4.1306   -0.7249    0.0000 H       1  UNL1        0.0277
     11 H           5.0656   -0.7249    0.0000 H       1  UNL1        0.0263
     12 H           5.8626   -0.7249    0.0000 H       1  UNL1        0.0263
     13 H           3.2646    0.7249    0.0000 H       1  UNL1        0.0429
     14 H           2.4675    0.7249    0.0000 H       1  UNL1        0.0429
     15 H           6.6401   -0.2869    0.0000 H       1  UNL1        0.0230
     16 H           6.8671    0.5600    0.0000 H       1  UNL1        0.0230
     17 H           6.0201    0.7869    0.0000 H       1  UNL1        0.0230
@<TRIPOS>BOND
     1     1     5    1
     2     2     3    1
     3     2     4    1
     4     2     7    1
     5     2     8    1
     6     3     5    1
     7     3     9    1
     8     3    10    1
     9     4     6    1
    10     4    11    1
    11     4    12    1
    12     5    13    1
    13     5    14    1
    14     6    15    1
    15     6    16    1
    16     6    17    1
