@<TRIPOS>MOLECULE
10899
 11 10 0 0 0
SMALL
GASTEIGER

@<TRIPOS>ATOM
      1 CL          2.0000    0.2500    0.0000 Cl      1  UNL1       -0.1254
      2 C           3.7320    0.2500    0.0000 C.3     1  UNL1       -0.0424
      3 C           2.8660   -0.2500    0.0000 C.3     1  UNL1        0.0224
      4 C           4.5981   -0.2500    0.0000 C.3     1  UNL1       -0.0642
      5 H           4.1306    0.7249    0.0000 H       1  UNL1        0.0274
      6 H           3.3335    0.7249    0.0000 H       1  UNL1        0.0274
      7 H           2.4675   -0.7249    0.0000 H       1  UNL1        0.0429
      8 H           3.2646   -0.7249    0.0000 H       1  UNL1        0.0429
      9 H           4.2881   -0.7869    0.0000 H       1  UNL1        0.0230
     10 H           5.1350   -0.5600    0.0000 H       1  UNL1        0.0230
     11 H           4.9081    0.2869    0.0000 H       1  UNL1        0.0230
@<TRIPOS>BOND
     1     1     3    1
     2     2     3    1
     3     2     4    1
     4     2     5    1
     5     2     6    1
     6     3     7    1
     7     3     8    1
     8     4     9    1
     9     4    10    1
    10     4    11    1
