@<TRIPOS>MOLECULE
6365
 8 7 0 0 0
SMALL
GASTEIGER

@<TRIPOS>ATOM
      1 CL          3.7320    0.7500    0.0000 Cl      1  UNL1       -0.1049
      2 CL          2.0000    0.7500    0.0000 Cl      1  UNL1       -0.1049
      3 C           2.8660    0.2500    0.0000 C.3     1  UNL1        0.1050
      4 C           2.8660   -0.7500    0.0000 C.3     1  UNL1       -0.0350
      5 H           2.8660    0.8700    0.0000 H       1  UNL1        0.0631
      6 H           2.2460   -0.7500    0.0000 H       1  UNL1        0.0255
      7 H           2.8660   -1.3700    0.0000 H       1  UNL1        0.0255
      8 H           3.4860   -0.7500    0.0000 H       1  UNL1        0.0255
@<TRIPOS>BOND
     1     1     3    1
     2     2     3    1
     3     3     4    1
     4     3     5    1
     5     4     6    1
     6     4     7    1
     7     4     8    1
