@<TRIPOS>MOLECULE
12418
 8 7 0 0 0
SMALL
GASTEIGER

@<TRIPOS>ATOM
      1 CL          2.0000   -0.5000    0.0000 Cl      1  UNL1       -0.0821
      2 CL          2.3660    0.8660    0.0000 Cl      1  UNL1       -0.0821
      3 CL          3.3660   -0.8660    0.0000 Cl      1  UNL1       -0.0821
      4 CL          4.5981    0.0000    0.0000 Cl      1  UNL1       -0.1211
      5 C           2.8660    0.0000    0.0000 C.3     1  UNL1        0.2038
      6 C           3.7320    0.5000    0.0000 C.3     1  UNL1        0.0693
      7 H           4.1306    0.9749    0.0000 H       1  UNL1        0.0471
      8 H           3.3335    0.9749    0.0000 H       1  UNL1        0.0471
@<TRIPOS>BOND
     1     1     5    1
     2     2     5    1
     3     3     5    1
     4     4     6    1
     5     5     6    1
     6     6     7    1
     7     6     8    1
