@<TRIPOS>MOLECULE
6574
 8 7 0 0 0
SMALL
GASTEIGER

@<TRIPOS>ATOM
      1 CL          2.0000    0.7500    0.0000 Cl      1  UNL1       -0.1033
      2 CL          2.8660   -0.7500    0.0000 Cl      1  UNL1       -0.1033
      3 CL          4.5981    0.2500    0.0000 Cl      1  UNL1       -0.1227
      4 C           2.8660    0.2500    0.0000 C.3     1  UNL1        0.1211
      5 C           3.7320    0.7500    0.0000 C.3     1  UNL1        0.0525
      6 H           2.8660    0.8700    0.0000 H       1  UNL1        0.0646
      7 H           4.1306    1.2250    0.0000 H       1  UNL1        0.0456
      8 H           3.3335    1.2250    0.0000 H       1  UNL1        0.0456
@<TRIPOS>BOND
     1     1     4    1
     2     2     4    1
     3     3     5    1
     4     4     5    1
     5     4     6    1
     6     5     7    1
     7     5     8    1
