@<TRIPOS>MOLECULE
8071
 16 15 0 0 0
SMALL
GASTEIGER

@<TRIPOS>ATOM
      1 O           2.8660    0.2500    0.0000 O.3     1  UNL1       -0.3807
      2 O           5.4641   -0.2500    0.0000 O.3     1  UNL1       -0.3807
      3 C           3.7320   -0.2500    0.0000 C.3     1  UNL1        0.0706
      4 C           4.5981    0.2500    0.0000 C.3     1  UNL1        0.0706
      5 C           2.0000   -0.2500    0.0000 C.3     1  UNL1        0.0365
      6 C           6.3301    0.2500    0.0000 C.3     1  UNL1        0.0365
      7 H           3.3335   -0.7249    0.0000 H       1  UNL1        0.0582
      8 H           4.1306   -0.7249    0.0000 H       1  UNL1        0.0582
      9 H           4.9966    0.7249    0.0000 H       1  UNL1        0.0582
     10 H           4.1996    0.7249    0.0000 H       1  UNL1        0.0582
     11 H           1.6900    0.2869    0.0000 H       1  UNL1        0.0524
     12 H           1.4631   -0.5600    0.0000 H       1  UNL1        0.0524
     13 H           2.3100   -0.7869    0.0000 H       1  UNL1        0.0524
     14 H           6.6401   -0.2869    0.0000 H       1  UNL1        0.0524
     15 H           6.8671    0.5600    0.0000 H       1  UNL1        0.0524
     16 H           6.0201    0.7869    0.0000 H       1  UNL1        0.0524
@<TRIPOS>BOND
     1     1     3    1
     2     1     5    1
     3     2     4    1
     4     2     6    1
     5     3     4    1
     6     3     7    1
     7     3     8    1
     8     4     9    1
     9     4    10    1
    10     5    11    1
    11     5    12    1
    12     5    13    1
    13     6    14    1
    14     6    15    1
    15     6    16    1
