@<TRIPOS>MOLECULE
174
 10 9 0 0 0
SMALL
GASTEIGER

@<TRIPOS>ATOM
      1 O           2.5369    0.2500    0.0000 O.3     1  UNL1       -0.3928
      2 O           5.1350   -0.2500    0.0000 O.3     1  UNL1       -0.3928
      3 C           3.4030   -0.2500    0.0000 C.3     1  UNL1        0.0673
      4 C           4.2690    0.2500    0.0000 C.3     1  UNL1        0.0673
      5 H           3.0044   -0.7249    0.0000 H       1  UNL1        0.0580
      6 H           3.8015   -0.7249    0.0000 H       1  UNL1        0.0580
      7 H           4.6675    0.7249    0.0000 H       1  UNL1        0.0580
      8 H           3.8705    0.7249    0.0000 H       1  UNL1        0.0580
      9 H           2.0000   -0.0600    0.0000 H       1  UNL1        0.2095
     10 H           5.6720    0.0600    0.0000 H       1  UNL1        0.2095
@<TRIPOS>BOND
     1     1     3    1
     2     1     9    1
     3     2     4    1
     4     2    10    1
     5     3     4    1
     6     3     5    1
     7     3     6    1
     8     4     7    1
     9     4     8    1
