@<TRIPOS>MOLECULE
6895
 12 12 0 0 0
SMALL
GASTEIGER

@<TRIPOS>ATOM
      1 CL          3.7320    1.5000    0.0000 Cl      1  UNL1       -0.0805
      2 CL          5.4641    0.5000    0.0000 Cl      1  UNL1       -0.0820
      3 CL          2.0000    0.5000    0.0000 Cl      1  UNL1       -0.0820
      4 C           3.7320    0.5000    0.0000 C.ar    1  UNL1        0.0775
      5 C           4.5981   -0.0000    0.0000 C.ar    1  UNL1        0.0607
      6 C           2.8660    0.0000    0.0000 C.ar    1  UNL1        0.0607
      7 C           4.5981   -1.0000    0.0000 C.ar    1  UNL1       -0.0419
      8 C           2.8660   -1.0000    0.0000 C.ar    1  UNL1       -0.0419
      9 C           3.7320   -1.5000    0.0000 C.ar    1  UNL1       -0.0589
     10 H           5.1350   -1.3100    0.0000 H       1  UNL1        0.0633
     11 H           2.3291   -1.3100    0.0000 H       1  UNL1        0.0633
     12 H           3.7320   -2.1200    0.0000 H       1  UNL1        0.0618
@<TRIPOS>BOND
     1     1     4    1
     2     2     5    1
     3     3     6    1
     4     4     5   ar
     5     4     6   ar
     6     5     7   ar
     7     6     8   ar
     8     7     9   ar
     9     7    10    1
    10     8     9   ar
    11     8    11    1
    12     9    12    1
