@<TRIPOS>MOLECULE
12463
 12 12 0 0 0
SMALL
GASTEIGER

@<TRIPOS>ATOM
      1 CL          3.7320    1.5000    0.0000 Cl      1  UNL1       -0.0805
      2 CL          2.0000    0.5000    0.0000 Cl      1  UNL1       -0.0805
      3 CL          5.4641    0.5000    0.0000 Cl      1  UNL1       -0.0820
      4 CL          2.0000   -1.5000    0.0000 Cl      1  UNL1       -0.0820
      5 C           3.7320    0.5000    0.0000 C.ar    1  UNL1        0.0789
      6 C           2.8660    0.0000    0.0000 C.ar    1  UNL1        0.0789
      7 C           4.5981   -0.0000    0.0000 C.ar    1  UNL1        0.0608
      8 C           2.8660   -1.0000    0.0000 C.ar    1  UNL1        0.0608
      9 C           4.5981   -1.0000    0.0000 C.ar    1  UNL1       -0.0405
     10 C           3.7320   -1.5000    0.0000 C.ar    1  UNL1       -0.0405
     11 H           5.1350   -1.3100    0.0000 H       1  UNL1        0.0633
     12 H           3.7320   -2.1200    0.0000 H       1  UNL1        0.0633
@<TRIPOS>BOND
     1     1     5    1
     2     2     6    1
     3     3     7    1
     4     4     8    1
     5     5     6   ar
     6     5     7   ar
     7     6     8   ar
     8     7     9   ar
     9     8    10   ar
    10     9    10   ar
    11     9    11    1
    12    10    12    1
