@<TRIPOS>MOLECULE
12468
 12 12 0 0 0
SMALL
GASTEIGER

@<TRIPOS>ATOM
      1 CL          3.7320    2.0000    0.0000 Cl      1  UNL1       -0.0805
      2 CL          2.0000    1.0000    0.0000 Cl      1  UNL1       -0.0819
      3 CL          5.4641    1.0000    0.0000 Cl      1  UNL1       -0.0819
      4 CL          3.7320   -2.0000    0.0000 Cl      1  UNL1       -0.0834
      5 C           3.7320    1.0000    0.0000 C.ar    1  UNL1        0.0776
      6 C           2.8660    0.5000    0.0000 C.ar    1  UNL1        0.0620
      7 C           4.5981    0.5000    0.0000 C.ar    1  UNL1        0.0620
      8 C           2.8660   -0.5000    0.0000 C.ar    1  UNL1       -0.0235
      9 C           4.5981   -0.5000    0.0000 C.ar    1  UNL1       -0.0235
     10 C           3.7320   -1.0000    0.0000 C.ar    1  UNL1        0.0438
     11 H           2.3291   -0.8100    0.0000 H       1  UNL1        0.0647
     12 H           5.1350   -0.8100    0.0000 H       1  UNL1        0.0647
@<TRIPOS>BOND
     1     1     5    1
     2     2     6    1
     3     3     7    1
     4     4    10    1
     5     5     6   ar
     6     5     7   ar
     7     6     8   ar
     8     7     9   ar
     9     8    10   ar
    10     8    11    1
    11     9    10   ar
    12     9    12    1
