@<TRIPOS>MOLECULE
7950
 12 12 0 0 0
SMALL
GASTEIGER

@<TRIPOS>ATOM
      1 CL          3.7320    1.5000    0.0000 Cl      1  UNL1       -0.0835
      2 CL          2.0000   -1.5000    0.0000 Cl      1  UNL1       -0.0835
      3 CL          5.4641   -1.5000    0.0000 Cl      1  UNL1       -0.0835
      4 C           3.7320    0.5000    0.0000 C.ar    1  UNL1        0.0437
      5 C           2.8660   -1.0000    0.0000 C.ar    1  UNL1        0.0437
      6 C           4.5981   -1.0000    0.0000 C.ar    1  UNL1        0.0437
      7 C           2.8660    0.0000    0.0000 C.ar    1  UNL1       -0.0249
      8 C           4.5981    0.0000    0.0000 C.ar    1  UNL1       -0.0249
      9 C           3.7320   -1.5000    0.0000 C.ar    1  UNL1       -0.0249
     10 H           2.3291    0.3100    0.0000 H       1  UNL1        0.0647
     11 H           5.1350    0.3100    0.0000 H       1  UNL1        0.0647
     12 H           3.7320   -2.1200    0.0000 H       1  UNL1        0.0647
@<TRIPOS>BOND
     1     1     4    1
     2     2     5    1
     3     3     6    1
     4     4     7   ar
     5     4     8   ar
     6     5     7   ar
     7     5     9   ar
     8     6     8   ar
     9     6     9   ar
    10     7    10    1
    11     8    11    1
    12     9    12    1
