@<TRIPOS>MOLECULE
221525
 17 16 0 0 0
SMALL
GASTEIGER

@<TRIPOS>ATOM
      1 CL          2.0000    0.7500    0.0000 Cl      1  UNL1       -0.1220
      2 CL          6.3301    0.2500    0.0000 Cl      1  UNL1       -0.1254
      3 C           3.7320    0.7500    0.0000 C.3     1  UNL1       -0.0359
      4 C           2.8660    0.2500    0.0000 C.3     1  UNL1        0.0312
      5 C           4.5981    0.2500    0.0000 C.3     1  UNL1       -0.0382
      6 C           2.8660   -0.7500    0.0000 C.3     1  UNL1       -0.0488
      7 C           5.4641    0.7500    0.0000 C.3     1  UNL1        0.0226
      8 H           4.1306    1.2250    0.0000 H       1  UNL1        0.0280
      9 H           3.3335    1.2250    0.0000 H       1  UNL1        0.0280
     10 H           2.8660    0.8700    0.0000 H       1  UNL1        0.0463
     11 H           4.1996   -0.2249    0.0000 H       1  UNL1        0.0277
     12 H           4.9966   -0.2249    0.0000 H       1  UNL1        0.0277
     13 H           2.2460   -0.7500    0.0000 H       1  UNL1        0.0244
     14 H           2.8660   -1.3700    0.0000 H       1  UNL1        0.0244
     15 H           3.4860   -0.7500    0.0000 H       1  UNL1        0.0244
     16 H           5.8626    1.2250    0.0000 H       1  UNL1        0.0429
     17 H           5.0656    1.2250    0.0000 H       1  UNL1        0.0429
@<TRIPOS>BOND
     1     1     4    1
     2     2     7    1
     3     3     4    1
     4     3     5    1
     5     3     8    1
     6     3     9    1
     7     4     6    1
     8     4    10    1
     9     5     7    1
    10     5    11    1
    11     5    12    1
    12     6    13    1
    13     6    14    1
    14     6    15    1
    15     7    16    1
    16     7    17    1
