@<TRIPOS>MOLECULE
4685
 12 12 0 0 0
SMALL
GASTEIGER

@<TRIPOS>ATOM
      1 CL          2.8660   -2.0000    0.0000 Cl      1  UNL1       -0.0835
      2 CL          2.8660    2.0000    0.0000 Cl      1  UNL1       -0.0835
      3 C           2.8660   -1.0000    0.0000 C.ar    1  UNL1        0.0411
      4 C           2.8660    1.0000    0.0000 C.ar    1  UNL1        0.0411
      5 C           3.7320   -0.5000    0.0000 C.ar    1  UNL1       -0.0420
      6 C           3.7320    0.5000    0.0000 C.ar    1  UNL1       -0.0420
      7 C           2.0000   -0.5000    0.0000 C.ar    1  UNL1       -0.0420
      8 C           2.0000    0.5000    0.0000 C.ar    1  UNL1       -0.0420
      9 H           4.2690   -0.8100    0.0000 H       1  UNL1        0.0633
     10 H           4.2690    0.8100    0.0000 H       1  UNL1        0.0633
     11 H           1.4631   -0.8100    0.0000 H       1  UNL1        0.0633
     12 H           1.4631    0.8100    0.0000 H       1  UNL1        0.0633
@<TRIPOS>BOND
     1     1     3    1
     2     2     4    1
     3     3     5   ar
     4     3     7   ar
     5     4     6   ar
     6     4     8   ar
     7     5     6   ar
     8     5     9    1
     9     6    10    1
    10     7     8   ar
    11     7    11    1
    12     8    12    1
