@<TRIPOS>MOLECULE
8133
 22 21 0 0 0
SMALL
GASTEIGER

@<TRIPOS>ATOM
      1 O           5.1350   -0.2500    0.0000 O.3     1  UNL1       -0.3775
      2 O           2.5369    0.2500    0.0000 O.3     1  UNL1       -0.3927
      3 C           6.8671   -0.2500    0.0000 C.3     1  UNL1       -0.0297
      4 C           7.7331    0.2500    0.0000 C.3     1  UNL1       -0.0538
      5 C           6.0010    0.2500    0.0000 C.3     1  UNL1        0.0478
      6 C           8.5991   -0.2500    0.0000 C.3     1  UNL1       -0.0652
      7 C           4.2690    0.2500    0.0000 C.3     1  UNL1        0.0707
      8 C           3.4030   -0.2500    0.0000 C.3     1  UNL1        0.0676
      9 H           6.4685   -0.7249    0.0000 H       1  UNL1        0.0287
     10 H           7.2656   -0.7249    0.0000 H       1  UNL1        0.0287
     11 H           8.1316    0.7249    0.0000 H       1  UNL1        0.0263
     12 H           7.3346    0.7249    0.0000 H       1  UNL1        0.0263
     13 H           6.3996    0.7249    0.0000 H       1  UNL1        0.0560
     14 H           5.6025    0.7249    0.0000 H       1  UNL1        0.0560
     15 H           4.6675    0.7249    0.0000 H       1  UNL1        0.0583
     16 H           3.8705    0.7249    0.0000 H       1  UNL1        0.0583
     17 H           8.2891   -0.7869    0.0000 H       1  UNL1        0.0230
     18 H           9.1360   -0.5600    0.0000 H       1  UNL1        0.0230
     19 H           8.9091    0.2869    0.0000 H       1  UNL1        0.0230
     20 H           3.0044   -0.7249    0.0000 H       1  UNL1        0.0580
     21 H           3.8015   -0.7249    0.0000 H       1  UNL1        0.0580
     22 H           2.0000   -0.0600    0.0000 H       1  UNL1        0.2095
@<TRIPOS>BOND
     1     1     5    1
     2     1     7    1
     3     2     8    1
     4     2    22    1
     5     3     4    1
     6     3     5    1
     7     3     9    1
     8     3    10    1
     9     4     6    1
    10     4    11    1
    11     4    12    1
    12     5    13    1
    13     5    14    1
    14     6    17    1
    15     6    18    1
    16     6    19    1
    17     7     8    1
    18     7    15    1
    19     7    16    1
    20     8    20    1
    21     8    21    1
