@<TRIPOS>MOLECULE
7245
 13 13 0 0 0
SMALL
GASTEIGER

@<TRIPOS>ATOM
      1 CL          2.0000    0.3450    0.0000 Cl      1  UNL1       -0.0798
      2 O           3.7320    1.3450    0.0000 O.3     1  UNL1       -0.5053
      3 C           3.7320    0.3450    0.0000 C.ar    1  UNL1        0.1351
      4 C           2.8660   -0.1550    0.0000 C.ar    1  UNL1        0.0823
      5 C           4.5981   -0.1550    0.0000 C.ar    1  UNL1       -0.0187
      6 C           2.8660   -1.1550    0.0000 C.ar    1  UNL1       -0.0398
      7 C           4.5981   -1.1550    0.0000 C.ar    1  UNL1       -0.0582
      8 C           3.7320   -1.6550    0.0000 C.ar    1  UNL1       -0.0602
      9 H           5.1350    0.1550    0.0000 H       1  UNL1        0.0654
     10 H           2.3291   -1.4650    0.0000 H       1  UNL1        0.0633
     11 H           5.1350   -1.4650    0.0000 H       1  UNL1        0.0619
     12 H           3.7320   -2.2750    0.0000 H       1  UNL1        0.0618
     13 H           4.2690    1.6550    0.0000 H       1  UNL1        0.2922
@<TRIPOS>BOND
     1     1     4    1
     2     2     3    1
     3     2    13    1
     4     3     4   ar
     5     3     5   ar
     6     4     6   ar
     7     5     7   ar
     8     5     9    1
     9     6     8   ar
    10     6    10    1
    11     7     8   ar
    12     7    11    1
    13     8    12    1
