@<TRIPOS>MOLECULE
8076
 16 15 0 0 0
SMALL
GASTEIGER

@<TRIPOS>ATOM
      1 O           3.7320   -0.2500    0.0000 O.3     1  UNL1       -0.3778
      2 O           6.3301    0.2500    0.0000 O.3     1  UNL1       -0.3927
      3 C           4.5981    0.2500    0.0000 C.3     1  UNL1        0.0707
      4 C           2.8660    0.2500    0.0000 C.3     1  UNL1        0.0449
      5 C           5.4641   -0.2500    0.0000 C.3     1  UNL1        0.0676
      6 C           2.0000   -0.2500    0.0000 C.3     1  UNL1       -0.0416
      7 H           4.9966    0.7249    0.0000 H       1  UNL1        0.0583
      8 H           4.1996    0.7249    0.0000 H       1  UNL1        0.0583
      9 H           3.2646    0.7249    0.0000 H       1  UNL1        0.0557
     10 H           2.4675    0.7249    0.0000 H       1  UNL1        0.0557
     11 H           5.0656   -0.7249    0.0000 H       1  UNL1        0.0580
     12 H           5.8626   -0.7249    0.0000 H       1  UNL1        0.0580
     13 H           1.6900    0.2869    0.0000 H       1  UNL1        0.0252
     14 H           1.4631   -0.5600    0.0000 H       1  UNL1        0.0252
     15 H           2.3100   -0.7869    0.0000 H       1  UNL1        0.0252
     16 H           6.8671   -0.0600    0.0000 H       1  UNL1        0.2095
@<TRIPOS>BOND
     1     1     3    1
     2     1     4    1
     3     2     5    1
     4     2    16    1
     5     3     5    1
     6     3     7    1
     7     3     8    1
     8     4     6    1
     9     4     9    1
    10     4    10    1
    11     5    11    1
    12     5    12    1
    13     6    13    1
    14     6    14    1
    15     6    15    1
