@<TRIPOS>MOLECULE
11903
 21 21 0 0 0
SMALL
GASTEIGER

@<TRIPOS>ATOM
      1 C           3.7320    0.2500    0.0000 C.ar    1  UNL1       -0.0447
      2 C           3.7320    1.2500    0.0000 C.3     1  UNL1       -0.0303
      3 C           2.8660   -0.2500    0.0000 C.ar    1  UNL1       -0.0473
      4 C           4.5981   -0.2500    0.0000 C.ar    1  UNL1       -0.0583
      5 C           2.8660   -1.2500    0.0000 C.ar    1  UNL1       -0.0586
      6 C           4.5981    1.7500    0.0000 C.3     1  UNL1       -0.0613
      7 C           2.0000    0.2500    0.0000 C.3     1  UNL1       -0.0395
      8 C           4.5981   -1.2500    0.0000 C.ar    1  UNL1       -0.0615
      9 C           3.7320   -1.7500    0.0000 C.ar    1  UNL1       -0.0615
     10 H           3.5200    1.8326    0.0000 H       1  UNL1        0.0311
     11 H           3.1215    1.1423    0.0000 H       1  UNL1        0.0311
     12 H           5.1350    0.0600    0.0000 H       1  UNL1        0.0620
     13 H           2.3291   -1.5600    0.0000 H       1  UNL1        0.0620
     14 H           4.9081    1.2131    0.0000 H       1  UNL1        0.0233
     15 H           5.1350    2.0600    0.0000 H       1  UNL1        0.0233
     16 H           4.2881    2.2869    0.0000 H       1  UNL1        0.0233
     17 H           2.3100    0.7869    0.0000 H       1  UNL1        0.0278
     18 H           1.4631    0.5600    0.0000 H       1  UNL1        0.0278
     19 H           1.6900   -0.2869    0.0000 H       1  UNL1        0.0278
     20 H           5.1350   -1.5600    0.0000 H       1  UNL1        0.0618
     21 H           3.7320   -2.3700    0.0000 H       1  UNL1        0.0618
@<TRIPOS>BOND
     1     1     2    1
     2     1     3   ar
     3     1     4   ar
     4     2     6    1
     5     2    10    1
     6     2    11    1
     7     3     5   ar
     8     3     7    1
     9     4     8   ar
    10     4    12    1
    11     5     9   ar
    12     5    13    1
    13     6    14    1
    14     6    15    1
    15     6    16    1
    16     7    17    1
    17     7    18    1
    18     7    19    1
    19     8     9   ar
    20     8    20    1
    21     9    21    1
