@<TRIPOS>MOLECULE
11264
 21 20 0 0 0
SMALL
GASTEIGER

@<TRIPOS>ATOM
      1 O           2.5369    0.5000    0.0000 O.3     1  UNL1       -0.3915
      2 C           4.2690    0.5000    0.0000 C.3     1  UNL1       -0.0206
      3 C           3.4030    0.0000    0.0000 C.3     1  UNL1        0.0573
      4 C           3.4030   -1.0000    0.0000 C.3     1  UNL1       -0.0295
      5 C           5.1350    0.0000    0.0000 C.3     1  UNL1       -0.0603
      6 C           4.2690    1.5000    0.0000 C.3     1  UNL1       -0.0603
      7 C           2.5369   -1.5000    0.0000 C.3     1  UNL1       -0.0629
      8 H           4.2690   -0.1200    0.0000 H       1  UNL1        0.0320
      9 H           3.4030    0.6200    0.0000 H       1  UNL1        0.0596
     10 H           3.6150   -1.5826    0.0000 H       1  UNL1        0.0287
     11 H           4.0135   -0.8923    0.0000 H       1  UNL1        0.0287
     12 H           4.8250   -0.5369    0.0000 H       1  UNL1        0.0233
     13 H           5.6720   -0.3100    0.0000 H       1  UNL1        0.0233
     14 H           5.4450    0.5369    0.0000 H       1  UNL1        0.0233
     15 H           4.8890    1.5000    0.0000 H       1  UNL1        0.0233
     16 H           4.2690    2.1200    0.0000 H       1  UNL1        0.0233
     17 H           3.6490    1.5000    0.0000 H       1  UNL1        0.0233
     18 H           2.2269   -0.9631    0.0000 H       1  UNL1        0.0231
     19 H           2.0000   -1.8100    0.0000 H       1  UNL1        0.0231
     20 H           2.8469   -2.0369    0.0000 H       1  UNL1        0.0231
     21 H           2.0000    0.1900    0.0000 H       1  UNL1        0.2098
@<TRIPOS>BOND
     1     1     3    1
     2     1    21    1
     3     2     3    1
     4     2     5    1
     5     2     6    1
     6     2     8    1
     7     3     4    1
     8     3     9    1
     9     4     7    1
    10     4    10    1
    11     4    11    1
    12     5    12    1
    13     5    13    1
    14     5    14    1
    15     6    15    1
    16     6    16    1
    17     6    17    1
    18     7    18    1
    19     7    19    1
    20     7    20    1
