@<TRIPOS>MOLECULE
11582
 23 22 0 0 0
SMALL
GASTEIGER

@<TRIPOS>ATOM
      1 C           2.8660    0.2500    0.0000 C.3     1  UNL1       -0.0467
      2 C           3.7320    0.7500    0.0000 C.3     1  UNL1       -0.0507
      3 C           4.5981    0.2500    0.0000 C.3     1  UNL1       -0.0531
      4 C           5.4641    0.7500    0.0000 C.3     1  UNL1       -0.0559
      5 C           2.0000    0.7500    0.0000 C.3     1  UNL1       -0.0627
      6 C           2.8660   -0.7500    0.0000 C.3     1  UNL1       -0.0627
      7 C           6.3301    0.2500    0.0000 C.3     1  UNL1       -0.0653
      8 H           2.8660    0.8700    0.0000 H       1  UNL1        0.0295
      9 H           4.1306    1.2250    0.0000 H       1  UNL1        0.0268
     10 H           3.3335    1.2250    0.0000 H       1  UNL1        0.0268
     11 H           4.1996   -0.2249    0.0000 H       1  UNL1        0.0265
     12 H           4.9966   -0.2249    0.0000 H       1  UNL1        0.0265
     13 H           5.8626    1.2250    0.0000 H       1  UNL1        0.0263
     14 H           5.0656    1.2250    0.0000 H       1  UNL1        0.0263
     15 H           2.3100    1.2869    0.0000 H       1  UNL1        0.0232
     16 H           1.4631    1.0600    0.0000 H       1  UNL1        0.0232
     17 H           1.6900    0.2131    0.0000 H       1  UNL1        0.0232
     18 H           2.2460   -0.7500    0.0000 H       1  UNL1        0.0232
     19 H           2.8660   -1.3700    0.0000 H       1  UNL1        0.0232
     20 H           3.4860   -0.7500    0.0000 H       1  UNL1        0.0232
     21 H           6.0201   -0.2869    0.0000 H       1  UNL1        0.0230
     22 H           6.8671   -0.0600    0.0000 H       1  UNL1        0.0230
     23 H           6.6401    0.7869    0.0000 H       1  UNL1        0.0230
@<TRIPOS>BOND
     1     1     2    1
     2     1     5    1
     3     1     6    1
     4     1     8    1
     5     2     3    1
     6     2     9    1
     7     2    10    1
     8     3     4    1
     9     3    11    1
    10     3    12    1
    11     4     7    1
    12     4    13    1
    13     4    14    1
    14     5    15    1
    15     5    16    1
    16     5    17    1
    17     6    18    1
    18     6    19    1
    19     6    20    1
    20     7    21    1
    21     7    22    1
    22     7    23    1
