@<TRIPOS>MOLECULE
6557
 13 12 0 0 0
SMALL
GASTEIGER

@<TRIPOS>ATOM
      1 C           2.8660    0.2500    0.0000 C.2     1  UNL1       -0.0581
      2 C           2.0000    0.7500    0.0000 C.3     1  UNL1       -0.0403
      3 C           3.7320    0.7500    0.0000 C.2     1  UNL1       -0.0665
      4 C           2.8660   -0.7500    0.0000 C.2     1  UNL1       -0.0958
      5 C           4.5981    0.2500    0.0000 C.2     1  UNL1       -0.0985
      6 H           2.3100    1.2869    0.0000 H       1  UNL1        0.0277
      7 H           1.4631    1.0600    0.0000 H       1  UNL1        0.0277
      8 H           1.6900    0.2131    0.0000 H       1  UNL1        0.0277
      9 H           3.7320    1.3700    0.0000 H       1  UNL1        0.0614
     10 H           2.3291   -1.0600    0.0000 H       1  UNL1        0.0537
     11 H           3.4030   -1.0600    0.0000 H       1  UNL1        0.0537
     12 H           4.5981   -0.3700    0.0000 H       1  UNL1        0.0535
     13 H           5.1350    0.5600    0.0000 H       1  UNL1        0.0535
@<TRIPOS>BOND
     1     1     2    1
     2     1     3    1
     3     1     4    2
     4     2     6    1
     5     2     7    1
     6     2     8    1
     7     3     5    2
     8     3     9    1
     9     4    10    1
    10     4    11    1
    11     5    12    1
    12     5    13    1
