@<TRIPOS>MOLECULE
8723
 18 17 0 0 0
SMALL
GASTEIGER

@<TRIPOS>ATOM
      1 O           5.4641    0.2500    0.0000 O.3     1  UNL1       -0.3947
      2 C           3.7320    0.2500    0.0000 C.3     1  UNL1       -0.0209
      3 C           2.8660    0.7500    0.0000 C.3     1  UNL1       -0.0512
      4 C           4.5981    0.7500    0.0000 C.3     1  UNL1        0.0468
      5 C           3.7320   -0.7500    0.0000 C.3     1  UNL1       -0.0603
      6 C           2.0000    0.2500    0.0000 C.3     1  UNL1       -0.0650
      7 H           4.2690   -0.0600    0.0000 H       1  UNL1        0.0320
      8 H           3.2646    1.2250    0.0000 H       1  UNL1        0.0266
      9 H           2.4675    1.2250    0.0000 H       1  UNL1        0.0266
     10 H           4.9966    1.2250    0.0000 H       1  UNL1        0.0560
     11 H           4.1996    1.2250    0.0000 H       1  UNL1        0.0560
     12 H           3.1120   -0.7500    0.0000 H       1  UNL1        0.0233
     13 H           3.7320   -1.3700    0.0000 H       1  UNL1        0.0233
     14 H           4.3520   -0.7500    0.0000 H       1  UNL1        0.0233
     15 H           1.6900    0.7869    0.0000 H       1  UNL1        0.0230
     16 H           1.4631   -0.0600    0.0000 H       1  UNL1        0.0230
     17 H           2.3100   -0.2869    0.0000 H       1  UNL1        0.0230
     18 H           6.0010    0.5600    0.0000 H       1  UNL1        0.2094
@<TRIPOS>BOND
     1     1     4    1
     2     1    18    1
     3     2     3    1
     4     2     4    1
     5     2     5    1
     6     2     7    1
     7     3     6    1
     8     3     8    1
     9     3     9    1
    10     4    10    1
    11     4    11    1
    12     5    12    1
    13     5    13    1
    14     5    14    1
    15     6    15    1
    16     6    16    1
    17     6    17    1
