@<TRIPOS>MOLECULE
6405
 18 17 0 0 0
SMALL
GASTEIGER

@<TRIPOS>ATOM
      1 O           2.5369   -0.5000    0.0000 O.3     1  UNL1       -0.3891
      2 C           3.4030    0.0000    0.0000 C.3     1  UNL1        0.0603
      3 C           4.2690    0.5000    0.0000 C.3     1  UNL1       -0.0274
      4 C           2.9030    0.8660    0.0000 C.3     1  UNL1       -0.0363
      5 C           3.9030   -0.8660    0.0000 C.3     1  UNL1       -0.0363
      6 C           5.1350    0.0000    0.0000 C.3     1  UNL1       -0.0627
      7 H           4.6675    0.9749    0.0000 H       1  UNL1        0.0290
      8 H           3.8705    0.9749    0.0000 H       1  UNL1        0.0290
      9 H           3.4399    1.1760    0.0000 H       1  UNL1        0.0257
     10 H           2.5930    1.4030    0.0000 H       1  UNL1        0.0257
     11 H           2.3660    0.5560    0.0000 H       1  UNL1        0.0257
     12 H           3.3660   -1.1760    0.0000 H       1  UNL1        0.0257
     13 H           4.2130   -1.4030    0.0000 H       1  UNL1        0.0257
     14 H           4.4399   -0.5560    0.0000 H       1  UNL1        0.0257
     15 H           4.8250   -0.5369    0.0000 H       1  UNL1        0.0231
     16 H           5.6720   -0.3100    0.0000 H       1  UNL1        0.0231
     17 H           5.4450    0.5369    0.0000 H       1  UNL1        0.0231
     18 H           2.0000   -0.1900    0.0000 H       1  UNL1        0.2101
@<TRIPOS>BOND
     1     1     2    1
     2     1    18    1
     3     2     3    1
     4     2     4    1
     5     2     5    1
     6     3     6    1
     7     3     7    1
     8     3     8    1
     9     4     9    1
    10     4    10    1
    11     4    11    1
    12     5    12    1
    13     5    13    1
    14     5    14    1
    15     6    15    1
    16     6    16    1
    17     6    17    1
