@<TRIPOS>MOLECULE
10553
 15 14 0 0 0
SMALL
GASTEIGER

@<TRIPOS>ATOM
      1 C           2.8660    0.2500    0.0000 C.2     1  UNL1       -0.0799
      2 C           3.7320    0.7500    0.0000 C.2     1  UNL1       -0.0884
      3 C           2.0000    0.7500    0.0000 C.3     1  UNL1       -0.0441
      4 C           2.8660   -0.7500    0.0000 C.3     1  UNL1       -0.0441
      5 C           4.5981    0.2500    0.0000 C.3     1  UNL1       -0.0466
      6 H           3.7320    1.3700    0.0000 H       1  UNL1        0.0569
      7 H           2.3100    1.2869    0.0000 H       1  UNL1        0.0274
      8 H           1.4631    1.0600    0.0000 H       1  UNL1        0.0274
      9 H           1.6900    0.2131    0.0000 H       1  UNL1        0.0274
     10 H           2.2460   -0.7500    0.0000 H       1  UNL1        0.0274
     11 H           2.8660   -1.3700    0.0000 H       1  UNL1        0.0274
     12 H           3.4860   -0.7500    0.0000 H       1  UNL1        0.0274
     13 H           4.2881   -0.2869    0.0000 H       1  UNL1        0.0272
     14 H           5.1350   -0.0600    0.0000 H       1  UNL1        0.0272
     15 H           4.9081    0.7869    0.0000 H       1  UNL1        0.0272
@<TRIPOS>BOND
     1     1     2    2
     2     1     3    1
     3     1     4    1
     4     2     5    1
     5     2     6    1
     6     3     7    1
     7     3     8    1
     8     3     9    1
     9     4    10    1
    10     4    11    1
    11     4    12    1
    12     5    13    1
    13     5    14    1
    14     5    15    1
