@<TRIPOS>MOLECULE
6556
 17 16 0 0 0
SMALL
GASTEIGER

@<TRIPOS>ATOM
      1 C           2.8660    0.2500    0.0000 C.3     1  UNL1       -0.0470
      2 C           3.7320    0.7500    0.0000 C.3     1  UNL1       -0.0536
      3 C           2.0000    0.7500    0.0000 C.3     1  UNL1       -0.0627
      4 C           2.8660   -0.7500    0.0000 C.3     1  UNL1       -0.0627
      5 C           4.5981    0.2500    0.0000 C.3     1  UNL1       -0.0650
      6 H           2.8660    0.8700    0.0000 H       1  UNL1        0.0295
      7 H           4.1306    1.2250    0.0000 H       1  UNL1        0.0265
      8 H           3.3335    1.2250    0.0000 H       1  UNL1        0.0265
      9 H           2.3100    1.2869    0.0000 H       1  UNL1        0.0232
     10 H           1.4631    1.0600    0.0000 H       1  UNL1        0.0232
     11 H           1.6900    0.2131    0.0000 H       1  UNL1        0.0232
     12 H           2.2460   -0.7500    0.0000 H       1  UNL1        0.0232
     13 H           2.8660   -1.3700    0.0000 H       1  UNL1        0.0232
     14 H           3.4860   -0.7500    0.0000 H       1  UNL1        0.0232
     15 H           4.2881   -0.2869    0.0000 H       1  UNL1        0.0230
     16 H           5.1350   -0.0600    0.0000 H       1  UNL1        0.0230
     17 H           4.9081    0.7869    0.0000 H       1  UNL1        0.0230
@<TRIPOS>BOND
     1     1     2    1
     2     1     3    1
     3     1     4    1
     4     1     6    1
     5     2     5    1
     6     2     7    1
     7     2     8    1
     8     3     9    1
     9     3    10    1
    10     3    11    1
    11     4    12    1
    12     4    13    1
    13     4    14    1
    14     5    15    1
    15     5    16    1
    16     5    17    1
