@<TRIPOS>MOLECULE
6403
 20 19 0 0 0
SMALL
GASTEIGER

@<TRIPOS>ATOM
      1 C           2.8660    0.0000    0.0000 C.3     1  UNL1       -0.0380
      2 C           3.7320    0.5000    0.0000 C.3     1  UNL1       -0.0510
      3 C           2.0000   -0.5000    0.0000 C.3     1  UNL1       -0.0601
      4 C           2.3660    0.8660    0.0000 C.3     1  UNL1       -0.0601
      5 C           3.3660   -0.8660    0.0000 C.3     1  UNL1       -0.0601
      6 C           4.5981    0.0000    0.0000 C.3     1  UNL1       -0.0648
      7 H           4.1306    0.9749    0.0000 H       1  UNL1        0.0268
      8 H           3.3335    0.9749    0.0000 H       1  UNL1        0.0268
      9 H           1.6900    0.0369    0.0000 H       1  UNL1        0.0235
     10 H           1.4631   -0.8100    0.0000 H       1  UNL1        0.0235
     11 H           2.3100   -1.0369    0.0000 H       1  UNL1        0.0235
     12 H           2.9030    1.1760    0.0000 H       1  UNL1        0.0235
     13 H           2.0560    1.4030    0.0000 H       1  UNL1        0.0235
     14 H           1.8291    0.5560    0.0000 H       1  UNL1        0.0235
     15 H           2.8291   -1.1760    0.0000 H       1  UNL1        0.0235
     16 H           3.6760   -1.4030    0.0000 H       1  UNL1        0.0235
     17 H           3.9030   -0.5560    0.0000 H       1  UNL1        0.0235
     18 H           4.2881   -0.5369    0.0000 H       1  UNL1        0.0230
     19 H           5.1350   -0.3100    0.0000 H       1  UNL1        0.0230
     20 H           4.9081    0.5369    0.0000 H       1  UNL1        0.0230
@<TRIPOS>BOND
     1     1     2    1
     2     1     3    1
     3     1     4    1
     4     1     5    1
     5     2     6    1
     6     2     7    1
     7     2     8    1
     8     3     9    1
     9     3    10    1
    10     3    11    1
    11     4    12    1
    12     4    13    1
    13     4    14    1
    14     5    15    1
    15     5    16    1
    16     5    17    1
    17     6    18    1
    18     6    19    1
    19     6    20    1
