@<TRIPOS>MOLECULE
10687
 19 19 0 0 0
SMALL
GASTEIGER

@<TRIPOS>ATOM
      1 O           2.5369    0.5000    0.0000 O.3     1  UNL1       -0.5065
      2 C           4.2690    0.5000    0.0000 C.ar    1  UNL1       -0.0061
      3 C           5.1350   -0.0000    0.0000 C.ar    1  UNL1       -0.0441
      4 C           3.4030    0.0000    0.0000 C.ar    1  UNL1        0.1200
      5 C           5.1350   -1.0000    0.0000 C.ar    1  UNL1       -0.0584
      6 C           4.2690    1.5000    0.0000 C.3     1  UNL1       -0.0360
      7 C           6.0010    0.5000    0.0000 C.3     1  UNL1       -0.0393
      8 C           3.4030   -1.0000    0.0000 C.ar    1  UNL1       -0.0199
      9 C           4.2690   -1.5000    0.0000 C.ar    1  UNL1       -0.0580
     10 H           5.6720   -1.3100    0.0000 H       1  UNL1        0.0620
     11 H           4.8890    1.5000    0.0000 H       1  UNL1        0.0279
     12 H           4.2690    2.1200    0.0000 H       1  UNL1        0.0279
     13 H           3.6490    1.5000    0.0000 H       1  UNL1        0.0279
     14 H           6.3110   -0.0369    0.0000 H       1  UNL1        0.0278
     15 H           6.5380    0.8100    0.0000 H       1  UNL1        0.0278
     16 H           5.6910    1.0369    0.0000 H       1  UNL1        0.0278
     17 H           2.8660   -1.3100    0.0000 H       1  UNL1        0.0654
     18 H           4.2690   -2.1200    0.0000 H       1  UNL1        0.0619
     19 H           2.0000    0.1900    0.0000 H       1  UNL1        0.2921
@<TRIPOS>BOND
     1     1     4    1
     2     1    19    1
     3     2     3   ar
     4     2     4   ar
     5     2     6    1
     6     3     5   ar
     7     3     7    1
     8     4     8   ar
     9     5     9   ar
    10     5    10    1
    11     6    11    1
    12     6    12    1
    13     6    13    1
    14     7    14    1
    15     7    15    1
    16     7    16    1
    17     8     9   ar
    18     8    17    1
    19     9    18    1
