@<TRIPOS>MOLECULE
11260
 23 22 0 0 0
SMALL
GASTEIGER

@<TRIPOS>ATOM
      1 C           3.7320   -0.2500    0.0000 C.3     1  UNL1       -0.0418
      2 C           4.5981    0.2500    0.0000 C.3     1  UNL1       -0.0441
      3 C           2.8660    0.2500    0.0000 C.3     1  UNL1       -0.0531
      4 C           3.7320   -1.2500    0.0000 C.3     1  UNL1       -0.0622
      5 C           5.4641   -0.2500    0.0000 C.3     1  UNL1       -0.0624
      6 C           4.5981    1.2500    0.0000 C.3     1  UNL1       -0.0624
      7 C           2.0000   -0.2500    0.0000 C.3     1  UNL1       -0.0650
      8 H           4.2690   -0.5600    0.0000 H       1  UNL1        0.0301
      9 H           5.1350    0.5600    0.0000 H       1  UNL1        0.0298
     10 H           3.2646    0.7249    0.0000 H       1  UNL1        0.0265
     11 H           2.4675    0.7249    0.0000 H       1  UNL1        0.0265
     12 H           3.1120   -1.2500    0.0000 H       1  UNL1        0.0232
     13 H           3.7320   -1.8700    0.0000 H       1  UNL1        0.0232
     14 H           4.3520   -1.2500    0.0000 H       1  UNL1        0.0232
     15 H           5.1541   -0.7869    0.0000 H       1  UNL1        0.0232
     16 H           6.0010   -0.5600    0.0000 H       1  UNL1        0.0232
     17 H           5.7741    0.2869    0.0000 H       1  UNL1        0.0232
     18 H           5.2181    1.2500    0.0000 H       1  UNL1        0.0232
     19 H           4.5981    1.8700    0.0000 H       1  UNL1        0.0232
     20 H           3.9781    1.2500    0.0000 H       1  UNL1        0.0232
     21 H           1.6900    0.2869    0.0000 H       1  UNL1        0.0230
     22 H           1.4631   -0.5600    0.0000 H       1  UNL1        0.0230
     23 H           2.3100   -0.7869    0.0000 H       1  UNL1        0.0230
@<TRIPOS>BOND
     1     1     2    1
     2     1     3    1
     3     1     4    1
     4     1     8    1
     5     2     5    1
     6     2     6    1
     7     2     9    1
     8     3     7    1
     9     3    10    1
    10     3    11    1
    11     4    12    1
    12     4    13    1
    13     4    14    1
    14     5    15    1
    15     5    16    1
    16     5    17    1
    17     6    18    1
    18     6    19    1
    19     6    20    1
    20     7    21    1
    21     7    22    1
    22     7    23    1
