@<TRIPOS>MOLECULE
11269
 26 25 0 0 0
SMALL
GASTEIGER

@<TRIPOS>ATOM
      1 C           3.7320   -0.2500    0.0000 C.3     1  UNL1       -0.0392
      2 C           4.5981    0.2500    0.0000 C.3     1  UNL1       -0.0439
      3 C           2.8660    0.2500    0.0000 C.3     1  UNL1       -0.0439
      4 C           3.7320   -1.2500    0.0000 C.3     1  UNL1       -0.0619
      5 C           5.4641   -0.2500    0.0000 C.3     1  UNL1       -0.0624
      6 C           4.5981    1.2500    0.0000 C.3     1  UNL1       -0.0624
      7 C           2.0000   -0.2500    0.0000 C.3     1  UNL1       -0.0624
      8 C           2.8660    1.2500    0.0000 C.3     1  UNL1       -0.0624
      9 H           4.2690   -0.5600    0.0000 H       1  UNL1        0.0303
     10 H           5.1350    0.5600    0.0000 H       1  UNL1        0.0298
     11 H           2.8660   -0.3700    0.0000 H       1  UNL1        0.0298
     12 H           3.1120   -1.2500    0.0000 H       1  UNL1        0.0233
     13 H           3.7320   -1.8700    0.0000 H       1  UNL1        0.0233
     14 H           4.3520   -1.2500    0.0000 H       1  UNL1        0.0233
     15 H           5.1541   -0.7869    0.0000 H       1  UNL1        0.0232
     16 H           6.0010   -0.5600    0.0000 H       1  UNL1        0.0232
     17 H           5.7741    0.2869    0.0000 H       1  UNL1        0.0232
     18 H           5.2181    1.2500    0.0000 H       1  UNL1        0.0232
     19 H           4.5981    1.8700    0.0000 H       1  UNL1        0.0232
     20 H           3.9781    1.2500    0.0000 H       1  UNL1        0.0232
     21 H           1.6900    0.2869    0.0000 H       1  UNL1        0.0232
     22 H           1.4631   -0.5600    0.0000 H       1  UNL1        0.0232
     23 H           2.3100   -0.7869    0.0000 H       1  UNL1        0.0232
     24 H           3.4860    1.2500    0.0000 H       1  UNL1        0.0232
     25 H           2.8660    1.8700    0.0000 H       1  UNL1        0.0232
     26 H           2.2460    1.2500    0.0000 H       1  UNL1        0.0232
@<TRIPOS>BOND
     1     1     2    1
     2     1     3    1
     3     1     4    1
     4     1     9    1
     5     2     5    1
     6     2     6    1
     7     2    10    1
     8     3     7    1
     9     3     8    1
    10     3    11    1
    11     4    12    1
    12     4    13    1
    13     4    14    1
    14     5    15    1
    15     5    16    1
    16     5    17    1
    17     6    18    1
    18     6    19    1
    19     6    20    1
    20     7    21    1
    21     7    22    1
    22     7    23    1
    23     8    24    1
    24     8    25    1
    25     8    26    1
