@<TRIPOS>MOLECULE
5281168
 17 16 0 0 0
SMALL
GASTEIGER

@<TRIPOS>ATOM
      1 O           2.0000    0.2500    0.0000 O.2     1  UNL1       -0.2963
      2 C           6.3301   -0.2500    0.0000 C.3     1  UNL1       -0.0525
      3 C           5.4641    0.2500    0.0000 C.3     1  UNL1       -0.0346
      4 C           7.1962    0.2500    0.0000 C.3     1  UNL1       -0.0650
      5 C           4.5981   -0.2500    0.0000 C.2     1  UNL1       -0.0810
      6 C           3.7320    0.2500    0.0000 C.2     1  UNL1       -0.0264
      7 C           2.8660   -0.2500    0.0000 C.2     1  UNL1        0.1428
      8 H           5.9316   -0.7249    0.0000 H       1  UNL1        0.0266
      9 H           6.7287   -0.7249    0.0000 H       1  UNL1        0.0266
     10 H           5.8626    0.7249    0.0000 H       1  UNL1        0.0307
     11 H           5.0656    0.7249    0.0000 H       1  UNL1        0.0307
     12 H           7.5062   -0.2869    0.0000 H       1  UNL1        0.0230
     13 H           7.7331    0.5600    0.0000 H       1  UNL1        0.0230
     14 H           6.8862    0.7869    0.0000 H       1  UNL1        0.0230
     15 H           4.5981   -0.8700    0.0000 H       1  UNL1        0.0573
     16 H           3.7320    0.8700    0.0000 H       1  UNL1        0.0646
     17 H           2.8660   -0.8700    0.0000 H       1  UNL1        0.1075
@<TRIPOS>BOND
     1     1     7    2
     2     2     3    1
     3     2     4    1
     4     2     8    1
     5     2     9    1
     6     3     5    1
     7     3    10    1
     8     3    11    1
     9     4    12    1
    10     4    13    1
    11     4    14    1
    12     5     6    2
    13     5    15    1
    14     6     7    1
    15     6    16    1
    16     7    17    1
