@<TRIPOS>MOLECULE
101
 15 15 0 0 0
SMALL
GASTEIGER

@<TRIPOS>ATOM
      1 O           2.0000   -1.4400    0.0000 O.3     1  UNL1       -0.5067
      2 O           4.5981    2.0600    0.0000 O.2     1  UNL1       -0.2957
      3 C           3.7320    0.5600    0.0000 C.ar    1  UNL1        0.0176
      4 C           2.8660    0.0600    0.0000 C.ar    1  UNL1       -0.0100
      5 C           2.8660   -0.9400    0.0000 C.ar    1  UNL1        0.1175
      6 C           4.5981    0.0600    0.0000 C.ar    1  UNL1       -0.0513
      7 C           3.7320   -1.4400    0.0000 C.ar    1  UNL1       -0.0201
      8 C           4.5981   -0.9400    0.0000 C.ar    1  UNL1       -0.0577
      9 C           3.7320    1.5600    0.0000 C.2     1  UNL1        0.1503
     10 H           2.3291    0.3700    0.0000 H       1  UNL1        0.0661
     11 H           5.1350    0.3700    0.0000 H       1  UNL1        0.0624
     12 H           3.7320   -2.0600    0.0000 H       1  UNL1        0.0654
     13 H           5.1350   -1.2500    0.0000 H       1  UNL1        0.0619
     14 H           3.1951    1.8700    0.0000 H       1  UNL1        0.1081
     15 H           2.0000   -2.0600    0.0000 H       1  UNL1        0.2921
@<TRIPOS>BOND
     1     1     5    1
     2     1    15    1
     3     2     9    2
     4     3     4   ar
     5     3     6   ar
     6     3     9    1
     7     4     5   ar
     8     4    10    1
     9     5     7   ar
    10     6     8   ar
    11     6    11    1
    12     7     8   ar
    13     7    12    1
    14     8    13    1
    15     9    14    1
