@<TRIPOS>MOLECULE
7282
 20 19 0 0 0
SMALL
GASTEIGER

@<TRIPOS>ATOM
      1 C           3.7320    0.2500    0.0000 C.3     1  UNL1       -0.0444
      2 C           4.5981    0.7500    0.0000 C.3     1  UNL1       -0.0533
      3 C           2.8660    0.7500    0.0000 C.3     1  UNL1       -0.0533
      4 C           3.7320   -0.7500    0.0000 C.3     1  UNL1       -0.0624
      5 C           5.4641    0.2500    0.0000 C.3     1  UNL1       -0.0650
      6 C           2.0000    0.2500    0.0000 C.3     1  UNL1       -0.0650
      7 H           4.2690   -0.0600    0.0000 H       1  UNL1        0.0298
      8 H           4.9966    1.2250    0.0000 H       1  UNL1        0.0265
      9 H           4.1996    1.2250    0.0000 H       1  UNL1        0.0265
     10 H           3.2646    1.2250    0.0000 H       1  UNL1        0.0265
     11 H           2.4675    1.2250    0.0000 H       1  UNL1        0.0265
     12 H           3.1120   -0.7500    0.0000 H       1  UNL1        0.0232
     13 H           3.7320   -1.3700    0.0000 H       1  UNL1        0.0232
     14 H           4.3520   -0.7500    0.0000 H       1  UNL1        0.0232
     15 H           5.1541   -0.2869    0.0000 H       1  UNL1        0.0230
     16 H           6.0010   -0.0600    0.0000 H       1  UNL1        0.0230
     17 H           5.7741    0.7869    0.0000 H       1  UNL1        0.0230
     18 H           1.6900    0.7869    0.0000 H       1  UNL1        0.0230
     19 H           1.4631   -0.0600    0.0000 H       1  UNL1        0.0230
     20 H           2.3100   -0.2869    0.0000 H       1  UNL1        0.0230
@<TRIPOS>BOND
     1     1     2    1
     2     1     3    1
     3     1     4    1
     4     1     7    1
     5     2     5    1
     6     2     8    1
     7     2     9    1
     8     3     6    1
     9     3    10    1
    10     3    11    1
    11     4    12    1
    12     4    13    1
    13     4    14    1
    14     5    15    1
    15     5    16    1
    16     5    17    1
    17     6    18    1
    18     6    19    1
    19     6    20    1
