@<TRIPOS>MOLECULE
11239
 15 14 0 0 0
SMALL
GASTEIGER

@<TRIPOS>ATOM
      1 C           2.8660    0.2500    0.0000 C.3     1  UNL1       -0.0288
      2 C           2.0000    0.7500    0.0000 C.3     1  UNL1       -0.0592
      3 C           2.8660   -0.7500    0.0000 C.3     1  UNL1       -0.0592
      4 C           3.7320    0.7500    0.0000 C.2     1  UNL1       -0.0885
      5 C           4.5981    0.2500    0.0000 C.2     1  UNL1       -0.1024
      6 H           2.8660    0.8700    0.0000 H       1  UNL1        0.0338
      7 H           2.3100    1.2869    0.0000 H       1  UNL1        0.0235
      8 H           1.4631    1.0600    0.0000 H       1  UNL1        0.0235
      9 H           1.6900    0.2131    0.0000 H       1  UNL1        0.0235
     10 H           2.2460   -0.7500    0.0000 H       1  UNL1        0.0235
     11 H           2.8660   -1.3700    0.0000 H       1  UNL1        0.0235
     12 H           3.4860   -0.7500    0.0000 H       1  UNL1        0.0235
     13 H           3.7320    1.3700    0.0000 H       1  UNL1        0.0569
     14 H           4.5981   -0.3700    0.0000 H       1  UNL1        0.0532
     15 H           5.1350    0.5600    0.0000 H       1  UNL1        0.0532
@<TRIPOS>BOND
     1     1     2    1
     2     1     3    1
     3     1     4    1
     4     1     6    1
     5     2     7    1
     6     2     8    1
     7     2     9    1
     8     3    10    1
     9     3    11    1
    10     3    12    1
    11     4     5    2
    12     4    13    1
    13     5    14    1
    14     5    15    1
