@<TRIPOS>MOLECULE
11251
 16 15 0 0 0
SMALL
GASTEIGER

@<TRIPOS>ATOM
      1 O           3.7320    1.2500    0.0000 O.2     1  UNL1       -0.2974
      2 C           2.8660   -0.2500    0.0000 C.3     1  UNL1        0.0116
      3 C           2.0000    0.2500    0.0000 C.3     1  UNL1       -0.0560
      4 C           2.8660   -1.2500    0.0000 C.3     1  UNL1       -0.0560
      5 C           3.7320    0.2500    0.0000 C.2     1  UNL1        0.1328
      6 C           4.5981   -0.2500    0.0000 C.3     1  UNL1       -0.0058
      7 H           2.8660    0.3700    0.0000 H       1  UNL1        0.0372
      8 H           2.3100    0.7869    0.0000 H       1  UNL1        0.0236
      9 H           1.4631    0.5600    0.0000 H       1  UNL1        0.0236
     10 H           1.6900   -0.2869    0.0000 H       1  UNL1        0.0236
     11 H           2.2460   -1.2500    0.0000 H       1  UNL1        0.0236
     12 H           2.8660   -1.8700    0.0000 H       1  UNL1        0.0236
     13 H           3.4860   -1.2500    0.0000 H       1  UNL1        0.0236
     14 H           4.2881   -0.7869    0.0000 H       1  UNL1        0.0306
     15 H           5.1350   -0.5600    0.0000 H       1  UNL1        0.0306
     16 H           4.9081    0.2869    0.0000 H       1  UNL1        0.0306
@<TRIPOS>BOND
     1     1     5    2
     2     2     3    1
     3     2     4    1
     4     2     5    1
     5     2     7    1
     6     3     8    1
     7     3     9    1
     8     3    10    1
     9     4    11    1
    10     4    12    1
    11     4    13    1
    12     5     6    1
    13     6    14    1
    14     6    15    1
    15     6    16    1
