@<TRIPOS>MOLECULE
31234
 22 22 0 0 0
SMALL
GASTEIGER

@<TRIPOS>ATOM
      1 O           4.5981    2.1900    0.0000 O.3     1  UNL1       -0.3950
      2 C           2.8660    0.1900    0.0000 C.3     1  UNL1       -0.0256
      3 C           3.7320    0.6900    0.0000 C.3     1  UNL1       -0.0257
      4 C           2.8660   -0.8100    0.0000 C.ar    1  UNL1       -0.0473
      5 C           3.7320    1.6900    0.0000 C.3     1  UNL1        0.0445
      6 C           2.0000   -1.3100    0.0000 C.ar    1  UNL1       -0.0586
      7 C           3.7320   -1.3100    0.0000 C.ar    1  UNL1       -0.0586
      8 C           2.0000   -2.3100    0.0000 C.ar    1  UNL1       -0.0615
      9 C           3.7320   -2.3100    0.0000 C.ar    1  UNL1       -0.0615
     10 C           2.8660   -2.8100    0.0000 C.ar    1  UNL1       -0.0617
     11 H           2.6540    0.7726    0.0000 H       1  UNL1        0.0314
     12 H           2.2554    0.0823    0.0000 H       1  UNL1        0.0314
     13 H           3.9441    0.1074    0.0000 H       1  UNL1        0.0290
     14 H           4.3426    0.7977    0.0000 H       1  UNL1        0.0290
     15 H           3.5200    2.2726    0.0000 H       1  UNL1        0.0557
     16 H           3.1215    1.5823    0.0000 H       1  UNL1        0.0557
     17 H           1.4631   -1.0000    0.0000 H       1  UNL1        0.0620
     18 H           4.2690   -1.0000    0.0000 H       1  UNL1        0.0620
     19 H           1.4631   -2.6200    0.0000 H       1  UNL1        0.0618
     20 H           4.2690   -2.6200    0.0000 H       1  UNL1        0.0618
     21 H           2.8660   -3.4300    0.0000 H       1  UNL1        0.0618
     22 H           4.5981    2.8100    0.0000 H       1  UNL1        0.2094
@<TRIPOS>BOND
     1     1     5    1
     2     1    22    1
     3     2     3    1
     4     2     4    1
     5     2    11    1
     6     2    12    1
     7     3     5    1
     8     3    13    1
     9     3    14    1
    10     4     6   ar
    11     4     7   ar
    12     5    15    1
    13     5    16    1
    14     6     8   ar
    15     6    17    1
    16     7     9   ar
    17     7    18    1
    18     8    10   ar
    19     8    19    1
    20     9    10   ar
    21     9    20    1
    22    10    21    1
