@<TRIPOS>MOLECULE
7948
 19 19 0 0 0
SMALL
GASTEIGER

@<TRIPOS>ATOM
      1 O           3.7320    1.3450    0.0000 O.3     1  UNL1       -0.5068
      2 C           2.8660   -1.1550    0.0000 C.ar    1  UNL1       -0.0468
      3 C           4.5981   -1.1550    0.0000 C.ar    1  UNL1       -0.0468
      4 C           3.7320   -1.6550    0.0000 C.ar    1  UNL1       -0.0557
      5 C           2.8660   -0.1550    0.0000 C.ar    1  UNL1       -0.0172
      6 C           4.5981   -0.1550    0.0000 C.ar    1  UNL1       -0.0172
      7 C           3.7320    0.3450    0.0000 C.ar    1  UNL1        0.1174
      8 C           2.0000   -1.6550    0.0000 C.3     1  UNL1       -0.0396
      9 C           5.4641   -1.6550    0.0000 C.3     1  UNL1       -0.0396
     10 H           3.7320   -2.2750    0.0000 H       1  UNL1        0.0623
     11 H           2.3291    0.1550    0.0000 H       1  UNL1        0.0657
     12 H           5.1350    0.1550    0.0000 H       1  UNL1        0.0657
     13 H           1.6900   -1.1181    0.0000 H       1  UNL1        0.0278
     14 H           1.4631   -1.9650    0.0000 H       1  UNL1        0.0278
     15 H           2.3100   -2.1919    0.0000 H       1  UNL1        0.0278
     16 H           5.1541   -2.1919    0.0000 H       1  UNL1        0.0278
     17 H           6.0010   -1.9650    0.0000 H       1  UNL1        0.0278
     18 H           5.7741   -1.1181    0.0000 H       1  UNL1        0.0278
     19 H           4.2690    1.6550    0.0000 H       1  UNL1        0.2921
@<TRIPOS>BOND
     1     1     7    1
     2     1    19    1
     3     2     4   ar
     4     2     5   ar
     5     2     8    1
     6     3     4   ar
     7     3     6   ar
     8     3     9    1
     9     4    10    1
    10     5     7   ar
    11     5    11    1
    12     6     7   ar
    13     6    12    1
    14     8    13    1
    15     8    14    1
    16     8    15    1
    17     9    16    1
    18     9    17    1
    19     9    18    1
