@<TRIPOS>MOLECULE
4684
 13 13 0 0 0
SMALL
GASTEIGER

@<TRIPOS>ATOM
      1 CL          2.8660   -2.1550    0.0000 Cl      1  UNL1       -0.0835
      2 O           2.8660    1.8450    0.0000 O.3     1  UNL1       -0.5068
      3 C           2.8660    0.8450    0.0000 C.ar    1  UNL1        0.1169
      4 C           2.0000    0.3450    0.0000 C.ar    1  UNL1       -0.0188
      5 C           3.7320    0.3450    0.0000 C.ar    1  UNL1       -0.0188
      6 C           2.0000   -0.6550    0.0000 C.ar    1  UNL1       -0.0399
      7 C           3.7320   -0.6550    0.0000 C.ar    1  UNL1       -0.0399
      8 C           2.8660   -1.1550    0.0000 C.ar    1  UNL1        0.0412
      9 H           1.4631    0.6550    0.0000 H       1  UNL1        0.0654
     10 H           4.2690    0.6550    0.0000 H       1  UNL1        0.0654
     11 H           1.4631   -0.9650    0.0000 H       1  UNL1        0.0633
     12 H           4.2690   -0.9650    0.0000 H       1  UNL1        0.0633
     13 H           3.4030    2.1550    0.0000 H       1  UNL1        0.2921
@<TRIPOS>BOND
     1     1     8    1
     2     2     3    1
     3     2    13    1
     4     3     4   ar
     5     3     5   ar
     6     4     6   ar
     7     4     9    1
     8     5     7   ar
     9     5    10    1
    10     6     8   ar
    11     6    11    1
    12     7     8   ar
    13     7    12    1
