@<TRIPOS>MOLECULE
12160
 21 21 0 0 0
SMALL
GASTEIGER

@<TRIPOS>ATOM
      1 C           2.8660    0.7500    0.0000 C.ar    1  UNL1       -0.0476
      2 C           2.8660    1.7500    0.0000 C.3     1  UNL1       -0.0305
      3 C           2.8660   -1.2500    0.0000 C.ar    1  UNL1       -0.0504
      4 C           3.7320    0.2500    0.0000 C.ar    1  UNL1       -0.0583
      5 C           2.0000    0.2500    0.0000 C.ar    1  UNL1       -0.0583
      6 C           3.7320   -0.7500    0.0000 C.ar    1  UNL1       -0.0586
      7 C           2.0000   -0.7500    0.0000 C.ar    1  UNL1       -0.0586
      8 C           3.7320    2.2500    0.0000 C.3     1  UNL1       -0.0613
      9 C           2.8660   -2.2500    0.0000 C.3     1  UNL1       -0.0397
     10 H           2.6540    2.3326    0.0000 H       1  UNL1        0.0311
     11 H           2.2554    1.6423    0.0000 H       1  UNL1        0.0311
     12 H           4.2690    0.5600    0.0000 H       1  UNL1        0.0620
     13 H           1.4631    0.5600    0.0000 H       1  UNL1        0.0620
     14 H           4.2690   -1.0600    0.0000 H       1  UNL1        0.0620
     15 H           1.4631   -1.0600    0.0000 H       1  UNL1        0.0620
     16 H           4.0420    1.7131    0.0000 H       1  UNL1        0.0233
     17 H           4.2690    2.5600    0.0000 H       1  UNL1        0.0233
     18 H           3.4220    2.7869    0.0000 H       1  UNL1        0.0233
     19 H           2.2460   -2.2500    0.0000 H       1  UNL1        0.0278
     20 H           2.8660   -2.8700    0.0000 H       1  UNL1        0.0278
     21 H           3.4860   -2.2500    0.0000 H       1  UNL1        0.0278
@<TRIPOS>BOND
     1     1     2    1
     2     1     4   ar
     3     1     5   ar
     4     2     8    1
     5     2    10    1
     6     2    11    1
     7     3     6   ar
     8     3     7   ar
     9     3     9    1
    10     4     6   ar
    11     4    12    1
    12     5     7   ar
    13     5    13    1
    14     6    14    1
    15     7    15    1
    16     8    16    1
    17     8    17    1
    18     8    18    1
    19     9    19    1
    20     9    20    1
    21     9    21    1
