@<TRIPOS>MOLECULE
31242
 19 19 0 0 0
SMALL
GASTEIGER

@<TRIPOS>ATOM
      1 O           2.8660    2.0950    0.0000 O.3     1  UNL1       -0.5068
      2 C           2.8660   -0.9050    0.0000 C.ar    1  UNL1       -0.0474
      3 C           2.8660   -1.9050    0.0000 C.3     1  UNL1       -0.0305
      4 C           2.0000   -0.4050    0.0000 C.ar    1  UNL1       -0.0551
      5 C           3.7320   -0.4050    0.0000 C.ar    1  UNL1       -0.0551
      6 C           2.0000   -2.4050    0.0000 C.3     1  UNL1       -0.0613
      7 C           2.0000    0.5950    0.0000 C.ar    1  UNL1       -0.0199
      8 C           3.7320    0.5950    0.0000 C.ar    1  UNL1       -0.0199
      9 C           2.8660    1.0950    0.0000 C.ar    1  UNL1        0.1169
     10 H           3.0781   -2.4876    0.0000 H       1  UNL1        0.0311
     11 H           3.4766   -1.7973    0.0000 H       1  UNL1        0.0311
     12 H           1.4631   -0.7150    0.0000 H       1  UNL1        0.0621
     13 H           4.2690   -0.7150    0.0000 H       1  UNL1        0.0621
     14 H           1.6900   -1.8681    0.0000 H       1  UNL1        0.0233
     15 H           1.4631   -2.7150    0.0000 H       1  UNL1        0.0233
     16 H           2.3100   -2.9419    0.0000 H       1  UNL1        0.0233
     17 H           1.4631    0.9050    0.0000 H       1  UNL1        0.0654
     18 H           4.2690    0.9050    0.0000 H       1  UNL1        0.0654
     19 H           3.4030    2.4050    0.0000 H       1  UNL1        0.2921
@<TRIPOS>BOND
     1     1     9    1
     2     1    19    1
     3     2     3    1
     4     2     4   ar
     5     2     5   ar
     6     3     6    1
     7     3    10    1
     8     3    11    1
     9     4     7   ar
    10     4    12    1
    11     5     8   ar
    12     5    13    1
    13     6    14    1
    14     6    15    1
    15     6    16    1
    16     7     9   ar
    17     7    17    1
    18     8     9   ar
    19     8    18    1
