@<TRIPOS>MOLECULE
126
 15 15 0 0 0
SMALL
GASTEIGER

@<TRIPOS>ATOM
      1 O           2.8660   -2.0950    0.0000 O.3     1  UNL1       -0.5068
      2 O           3.7320    2.4050    0.0000 O.2     1  UNL1       -0.2957
      3 C           2.8660    0.9050    0.0000 C.ar    1  UNL1        0.0144
      4 C           2.0000    0.4050    0.0000 C.ar    1  UNL1       -0.0481
      5 C           3.7320    0.4050    0.0000 C.ar    1  UNL1       -0.0481
      6 C           2.8660   -1.0950    0.0000 C.ar    1  UNL1        0.1169
      7 C           2.0000   -0.5950    0.0000 C.ar    1  UNL1       -0.0195
      8 C           3.7320   -0.5950    0.0000 C.ar    1  UNL1       -0.0195
      9 C           2.8660    1.9050    0.0000 C.2     1  UNL1        0.1502
     10 H           1.4631    0.7150    0.0000 H       1  UNL1        0.0626
     11 H           4.2690    0.7150    0.0000 H       1  UNL1        0.0626
     12 H           1.4631   -0.9050    0.0000 H       1  UNL1        0.0654
     13 H           4.2690   -0.9050    0.0000 H       1  UNL1        0.0654
     14 H           2.3291    2.2150    0.0000 H       1  UNL1        0.1081
     15 H           2.3291   -2.4050    0.0000 H       1  UNL1        0.2921
@<TRIPOS>BOND
     1     1     6    1
     2     1    15    1
     3     2     9    2
     4     3     4   ar
     5     3     5   ar
     6     3     9    1
     7     4     7   ar
     8     4    10    1
     9     5     8   ar
    10     5    11    1
    11     6     7   ar
    12     6     8   ar
    13     7    12    1
    14     8    13    1
    15     9    14    1
