@<TRIPOS>MOLECULE
7393
 25 25 0 0 0
SMALL
GASTEIGER

@<TRIPOS>ATOM
      1 O           3.0000   -2.3450    0.0000 O.3     1  UNL1       -0.5068
      2 C           3.0000    1.6550    0.0000 C.3     1  UNL1       -0.0127
      3 C           3.0000    0.6550    0.0000 C.ar    1  UNL1       -0.0418
      4 C           3.0000    2.6550    0.0000 C.3     1  UNL1       -0.0560
      5 C           4.0000    1.6550    0.0000 C.3     1  UNL1       -0.0560
      6 C           2.0000    1.6550    0.0000 C.3     1  UNL1       -0.0560
      7 C           3.8660    0.1550    0.0000 C.ar    1  UNL1       -0.0546
      8 C           2.1340    0.1550    0.0000 C.ar    1  UNL1       -0.0546
      9 C           3.8660   -0.8450    0.0000 C.ar    1  UNL1       -0.0199
     10 C           2.1340   -0.8450    0.0000 C.ar    1  UNL1       -0.0199
     11 C           3.0000   -1.3450    0.0000 C.ar    1  UNL1        0.1169
     12 H           3.6200    2.6550    0.0000 H       1  UNL1        0.0238
     13 H           3.0000    3.2750    0.0000 H       1  UNL1        0.0238
     14 H           2.3800    2.6550    0.0000 H       1  UNL1        0.0238
     15 H           4.0000    1.0350    0.0000 H       1  UNL1        0.0238
     16 H           4.6200    1.6550    0.0000 H       1  UNL1        0.0238
     17 H           4.0000    2.2750    0.0000 H       1  UNL1        0.0238
     18 H           2.0000    2.2750    0.0000 H       1  UNL1        0.0238
     19 H           1.3800    1.6550    0.0000 H       1  UNL1        0.0238
     20 H           2.0000    1.0350    0.0000 H       1  UNL1        0.0238
     21 H           4.4030    0.4650    0.0000 H       1  UNL1        0.0622
     22 H           1.5970    0.4650    0.0000 H       1  UNL1        0.0622
     23 H           4.4030   -1.1550    0.0000 H       1  UNL1        0.0654
     24 H           1.5970   -1.1550    0.0000 H       1  UNL1        0.0654
     25 H           2.4631   -2.6550    0.0000 H       1  UNL1        0.2921
@<TRIPOS>BOND
     1     1    11    1
     2     1    25    1
     3     2     3    1
     4     2     4    1
     5     2     5    1
     6     2     6    1
     7     3     7   ar
     8     3     8   ar
     9     4    12    1
    10     4    13    1
    11     4    14    1
    12     5    15    1
    13     5    16    1
    14     5    17    1
    15     6    18    1
    16     6    19    1
    17     6    20    1
    18     7     9   ar
    19     7    21    1
    20     8    10   ar
    21     8    22    1
    22     9    11   ar
    23     9    23    1
    24    10    11   ar
    25    10    24    1
