@<TRIPOS>MOLECULE
7858
 10 9 0 0 0
SMALL
GASTEIGER

@<TRIPOS>ATOM
      1 O           2.5369    0.2500    0.0000 O.3     1  UNL1       -0.3910
      2 C           3.4030   -0.2500    0.0000 C.3     1  UNL1        0.0621
      3 C           4.2690    0.2500    0.0000 C.2     1  UNL1       -0.0661
      4 C           5.1350   -0.2500    0.0000 C.2     1  UNL1       -0.1005
      5 H           3.0044   -0.7249    0.0000 H       1  UNL1        0.0601
      6 H           3.8015   -0.7249    0.0000 H       1  UNL1        0.0601
      7 H           4.2690    0.8700    0.0000 H       1  UNL1        0.0589
      8 H           5.1350   -0.8700    0.0000 H       1  UNL1        0.0532
      9 H           5.6720    0.0600    0.0000 H       1  UNL1        0.0532
     10 H           2.0000   -0.0600    0.0000 H       1  UNL1        0.2098
@<TRIPOS>BOND
     1     1     2    1
     2     1    10    1
     3     2     3    1
     4     2     5    1
     5     2     6    1
     6     3     4    2
     7     3     7    1
     8     4     8    1
     9     4     9    1
