@<TRIPOS>MOLECULE
7519
 16 16 0 0 0
SMALL
GASTEIGER

@<TRIPOS>ATOM
      1 O           2.8660    1.2500    0.0000 O.3     1  UNL1       -0.4951
      2 C           2.8660    0.2500    0.0000 C.ar    1  UNL1        0.1201
      3 C           2.0000   -0.2500    0.0000 C.ar    1  UNL1       -0.0200
      4 C           3.7320   -0.2500    0.0000 C.ar    1  UNL1       -0.0200
      5 C           2.0000   -1.2500    0.0000 C.ar    1  UNL1       -0.0583
      6 C           3.7320   -1.2500    0.0000 C.ar    1  UNL1       -0.0583
      7 C           2.8660   -1.7500    0.0000 C.ar    1  UNL1       -0.0615
      8 C           3.7320    1.7500    0.0000 C.3     1  UNL1        0.0788
      9 H           1.4631    0.0600    0.0000 H       1  UNL1        0.0654
     10 H           4.2690    0.0600    0.0000 H       1  UNL1        0.0654
     11 H           1.4631   -1.5600    0.0000 H       1  UNL1        0.0619
     12 H           4.2690   -1.5600    0.0000 H       1  UNL1        0.0619
     13 H           2.8660   -2.3700    0.0000 H       1  UNL1        0.0618
     14 H           4.0420    1.2131    0.0000 H       1  UNL1        0.0660
     15 H           4.2690    2.0600    0.0000 H       1  UNL1        0.0660
     16 H           3.4220    2.2869    0.0000 H       1  UNL1        0.0660
@<TRIPOS>BOND
     1     1     2    1
     2     1     8    1
     3     2     3   ar
     4     2     4   ar
     5     3     5   ar
     6     3     9    1
     7     4     6   ar
     8     4    10    1
     9     5     7   ar
    10     5    11    1
    11     6     7   ar
    12     6    12    1
    13     7    13    1
    14     8    14    1
    15     8    15    1
    16     8    16    1
