@<TRIPOS>MOLECULE
6569
 13 12 0 0 0
SMALL
GASTEIGER

@<TRIPOS>ATOM
      1 O           2.8660   -0.7500    0.0000 O.2     1  UNL1       -0.2977
      2 C           3.7320    0.7500    0.0000 C.3     1  UNL1        0.0027
      3 C           2.8660    0.2500    0.0000 C.2     1  UNL1        0.1301
      4 C           4.5981    0.2500    0.0000 C.3     1  UNL1       -0.0586
      5 C           2.0000    0.7500    0.0000 C.3     1  UNL1       -0.0061
      6 H           4.1306    1.2250    0.0000 H       1  UNL1        0.0339
      7 H           3.3335    1.2250    0.0000 H       1  UNL1        0.0339
      8 H           4.2881   -0.2869    0.0000 H       1  UNL1        0.0234
      9 H           5.1350   -0.0600    0.0000 H       1  UNL1        0.0234
     10 H           4.9081    0.7869    0.0000 H       1  UNL1        0.0234
     11 H           2.3100    1.2869    0.0000 H       1  UNL1        0.0306
     12 H           1.4631    1.0600    0.0000 H       1  UNL1        0.0306
     13 H           1.6900    0.2131    0.0000 H       1  UNL1        0.0306
@<TRIPOS>BOND
     1     1     3    2
     2     2     3    1
     3     2     4    1
     4     2     6    1
     5     2     7    1
     6     3     5    1
     7     4     8    1
     8     4     9    1
     9     4    10    1
    10     5    11    1
    11     5    12    1
    12     5    13    1
