@<TRIPOS>MOLECULE
7845
 10 9 0 0 0
SMALL
GASTEIGER

@<TRIPOS>ATOM
      1 C           2.8660   -0.2500    0.0000 C.2     1  UNL1       -0.0694
      2 C           3.7320    0.2500    0.0000 C.2     1  UNL1       -0.0694
      3 C           2.0000    0.2500    0.0000 C.2     1  UNL1       -0.0987
      4 C           4.5981   -0.2500    0.0000 C.2     1  UNL1       -0.0987
      5 H           2.8660   -0.8700    0.0000 H       1  UNL1        0.0612
      6 H           3.7320    0.8700    0.0000 H       1  UNL1        0.0612
      7 H           2.0000    0.8700    0.0000 H       1  UNL1        0.0535
      8 H           1.4631   -0.0600    0.0000 H       1  UNL1        0.0535
      9 H           4.5981   -0.8700    0.0000 H       1  UNL1        0.0535
     10 H           5.1350    0.0600    0.0000 H       1  UNL1        0.0535
@<TRIPOS>BOND
     1     1     2    1
     2     1     3    2
     3     1     5    1
     4     2     4    2
     5     2     6    1
     6     3     7    1
     7     3     8    1
     8     4     9    1
     9     4    10    1
