@<TRIPOS>MOLECULE
261
 13 12 0 0 0
SMALL
GASTEIGER

@<TRIPOS>ATOM
      1 O           2.0000   -0.5600    0.0000 O.2     1  UNL1       -0.3010
      2 C           4.5981   -0.0600    0.0000 C.3     1  UNL1       -0.0495
      3 C           3.7320   -0.5600    0.0000 C.3     1  UNL1        0.0025
      4 C           5.4641   -0.5600    0.0000 C.3     1  UNL1       -0.0649
      5 C           2.8660   -0.0600    0.0000 C.2     1  UNL1        0.1203
      6 H           4.9966    0.4149    0.0000 H       1  UNL1        0.0267
      7 H           4.1996    0.4149    0.0000 H       1  UNL1        0.0267
      8 H           3.3335   -1.0350    0.0000 H       1  UNL1        0.0339
      9 H           4.1306   -1.0350    0.0000 H       1  UNL1        0.0339
     10 H           5.1541   -1.0969    0.0000 H       1  UNL1        0.0230
     11 H           6.0010   -0.8700    0.0000 H       1  UNL1        0.0230
     12 H           5.7741   -0.0231    0.0000 H       1  UNL1        0.0230
     13 H           2.8660    0.5600    0.0000 H       1  UNL1        0.1026
@<TRIPOS>BOND
     1     1     5    2
     2     2     3    1
     3     2     4    1
     4     2     6    1
     5     2     7    1
     6     3     5    1
     7     3     8    1
     8     3     9    1
     9     4    10    1
    10     4    11    1
    11     4    12    1
    12     5    13    1
