@<TRIPOS>MOLECULE
6327
 5 4 0 0 0
SMALL
GASTEIGER

@<TRIPOS>ATOM
      1 CL          2.0000    0.0000    0.0000 Cl      1  UNL1       -0.1291
      2 C           3.0000    0.0000    0.0000 C.3     1  UNL1        0.0110
      3 H           3.0000   -0.6200    0.0000 H       1  UNL1        0.0394
      4 H           3.6200   -0.0000    0.0000 H       1  UNL1        0.0394
      5 H           3.0000    0.6200    0.0000 H       1  UNL1        0.0394
@<TRIPOS>BOND
     1     1     2    1
     2     2     3    1
     3     2     4    1
     4     2     5    1
