@<TRIPOS>MOLECULE
12741
 31 30 0 0 0
SMALL
GASTEIGER

@<TRIPOS>ATOM
      1 O           2.8660   -0.7500    0.0000 O.2     1  UNL1       -0.2977
      2 C           6.3301    0.2500    0.0000 C.3     1  UNL1       -0.0530
      3 C           7.1962    0.7500    0.0000 C.3     1  UNL1       -0.0531
      4 C           5.4641    0.7500    0.0000 C.3     1  UNL1       -0.0527
      5 C           8.0622    0.2500    0.0000 C.3     1  UNL1       -0.0533
      6 C           4.5981    0.2500    0.0000 C.3     1  UNL1       -0.0464
      7 C           8.9282    0.7500    0.0000 C.3     1  UNL1       -0.0559
      8 C           3.7320    0.7500    0.0000 C.3     1  UNL1        0.0055
      9 C           9.7942    0.2500    0.0000 C.3     1  UNL1       -0.0653
     10 C           2.8660    0.2500    0.0000 C.2     1  UNL1        0.1303
     11 C           2.0000    0.7500    0.0000 C.3     1  UNL1       -0.0061
     12 H           5.9316   -0.2249    0.0000 H       1  UNL1        0.0265
     13 H           6.7287   -0.2249    0.0000 H       1  UNL1        0.0265
     14 H           7.5947    1.2250    0.0000 H       1  UNL1        0.0265
     15 H           6.7976    1.2250    0.0000 H       1  UNL1        0.0265
     16 H           5.8626    1.2250    0.0000 H       1  UNL1        0.0265
     17 H           5.0656    1.2250    0.0000 H       1  UNL1        0.0265
     18 H           7.6636   -0.2249    0.0000 H       1  UNL1        0.0265
     19 H           8.4607   -0.2249    0.0000 H       1  UNL1        0.0265
     20 H           4.1996   -0.2249    0.0000 H       1  UNL1        0.0269
     21 H           4.9966   -0.2249    0.0000 H       1  UNL1        0.0269
     22 H           9.3267    1.2250    0.0000 H       1  UNL1        0.0263
     23 H           8.5297    1.2250    0.0000 H       1  UNL1        0.0263
     24 H           4.1306    1.2250    0.0000 H       1  UNL1        0.0341
     25 H           3.3335    1.2250    0.0000 H       1  UNL1        0.0341
     26 H           9.4842   -0.2869    0.0000 H       1  UNL1        0.0230
     27 H          10.3312   -0.0600    0.0000 H       1  UNL1        0.0230
     28 H          10.1042    0.7869    0.0000 H       1  UNL1        0.0230
     29 H           2.3100    1.2869    0.0000 H       1  UNL1        0.0306
     30 H           1.4631    1.0600    0.0000 H       1  UNL1        0.0306
     31 H           1.6900    0.2131    0.0000 H       1  UNL1        0.0306
@<TRIPOS>BOND
     1     1    10    2
     2     2     3    1
     3     2     4    1
     4     2    12    1
     5     2    13    1
     6     3     5    1
     7     3    14    1
     8     3    15    1
     9     4     6    1
    10     4    16    1
    11     4    17    1
    12     5     7    1
    13     5    18    1
    14     5    19    1
    15     6     8    1
    16     6    20    1
    17     6    21    1
    18     7     9    1
    19     7    22    1
    20     7    23    1
    21     8    10    1
    22     8    24    1
    23     8    25    1
    24     9    26    1
    25     9    27    1
    26     9    28    1
    27    10    11    1
    28    11    29    1
    29    11    30    1
    30    11    31    1
