@<TRIPOS>MOLECULE
3283
 15 14 0 0 0
SMALL
GASTEIGER

@<TRIPOS>ATOM
      1 O           3.7320   -0.2500    0.0000 O.3     1  UNL1       -0.3803
      2 C           4.5981    0.2500    0.0000 C.3     1  UNL1        0.0448
      3 C           2.8660    0.2500    0.0000 C.3     1  UNL1        0.0448
      4 C           5.4641   -0.2500    0.0000 C.3     1  UNL1       -0.0416
      5 C           2.0000   -0.2500    0.0000 C.3     1  UNL1       -0.0416
      6 H           4.9966    0.7249    0.0000 H       1  UNL1        0.0557
      7 H           4.1996    0.7249    0.0000 H       1  UNL1        0.0557
      8 H           3.2646    0.7249    0.0000 H       1  UNL1        0.0557
      9 H           2.4675    0.7249    0.0000 H       1  UNL1        0.0557
     10 H           5.1541   -0.7869    0.0000 H       1  UNL1        0.0252
     11 H           6.0010   -0.5600    0.0000 H       1  UNL1        0.0252
     12 H           5.7741    0.2869    0.0000 H       1  UNL1        0.0252
     13 H           1.6900    0.2869    0.0000 H       1  UNL1        0.0252
     14 H           1.4631   -0.5600    0.0000 H       1  UNL1        0.0252
     15 H           2.3100   -0.7869    0.0000 H       1  UNL1        0.0252
@<TRIPOS>BOND
     1     1     2    1
     2     1     3    1
     3     2     4    1
     4     2     6    1
     5     2     7    1
     6     3     5    1
     7     3     8    1
     8     3     9    1
     9     4    10    1
    10     4    11    1
    11     4    12    1
    12     5    13    1
    13     5    14    1
    14     5    15    1
