@<TRIPOS>MOLECULE
8020
 13 12 0 0 0
SMALL
GASTEIGER

@<TRIPOS>ATOM
      1 O           4.5981    0.2500    0.0000 O.3     1  UNL1       -0.3573
      2 O           2.8660    0.2500    0.0000 O.3     1  UNL1       -0.3573
      3 C           3.7320   -0.2500    0.0000 C.3     1  UNL1        0.1474
      4 C           5.4641   -0.2500    0.0000 C.3     1  UNL1        0.0392
      5 C           2.0000   -0.2500    0.0000 C.3     1  UNL1        0.0392
      6 H           3.3335   -0.7249    0.0000 H       1  UNL1        0.0871
      7 H           4.1306   -0.7249    0.0000 H       1  UNL1        0.0871
      8 H           5.1541   -0.7869    0.0000 H       1  UNL1        0.0524
      9 H           6.0010   -0.5600    0.0000 H       1  UNL1        0.0524
     10 H           5.7741    0.2869    0.0000 H       1  UNL1        0.0524
     11 H           1.6900    0.2869    0.0000 H       1  UNL1        0.0524
     12 H           1.4631   -0.5600    0.0000 H       1  UNL1        0.0524
     13 H           2.3100   -0.7869    0.0000 H       1  UNL1        0.0524
@<TRIPOS>BOND
     1     1     3    1
     2     1     4    1
     3     2     3    1
     4     2     5    1
     5     3     6    1
     6     3     7    1
     7     4     8    1
     8     4     9    1
     9     4    10    1
    10     5    11    1
    11     5    12    1
    12     5    13    1
