@<TRIPOS>MOLECULE
8254
 9 8 0 0 0
SMALL
GASTEIGER

@<TRIPOS>ATOM
      1 O           2.8660   -0.2500    0.0000 O.3     1  UNL1       -0.3862
      2 C           3.7320    0.2500    0.0000 C.3     1  UNL1        0.0361
      3 C           2.0000    0.2500    0.0000 C.3     1  UNL1        0.0361
      4 H           4.0420   -0.2869    0.0000 H       1  UNL1        0.0523
      5 H           4.2690    0.5600    0.0000 H       1  UNL1        0.0523
      6 H           3.4220    0.7869    0.0000 H       1  UNL1        0.0523
      7 H           2.3100    0.7869    0.0000 H       1  UNL1        0.0523
      8 H           1.4631    0.5600    0.0000 H       1  UNL1        0.0523
      9 H           1.6900   -0.2869    0.0000 H       1  UNL1        0.0523
@<TRIPOS>BOND
     1     1     2    1
     2     1     3    1
     3     2     4    1
     4     2     5    1
     5     2     6    1
     6     3     7    1
     7     3     8    1
     8     3     9    1
