@<TRIPOS>MOLECULE
712
 4 3 0 0 0
SMALL
GASTEIGER

@<TRIPOS>ATOM
      1 O           2.0000   -0.5600    0.0000 O.2     1  UNL1       -0.3047
      2 C           2.8660   -0.0600    0.0000 C.2     1  UNL1        0.1071
      3 H           3.4030   -0.3700    0.0000 H       1  UNL1        0.0988
      4 H           2.8660    0.5600    0.0000 H       1  UNL1        0.0988
@<TRIPOS>BOND
     1     1     2    2
     2     2     3    1
     3     2     4    1
