@<TRIPOS>MOLECULE
8130
 22 21 0 0 0
SMALL
GASTEIGER

@<TRIPOS>ATOM
      1 O           8.0622   -0.5600    0.0000 O.2     1  UNL1       -0.3010
      2 C           4.5981   -0.5600    0.0000 C.3     1  UNL1       -0.0527
      3 C           3.7320   -0.0600    0.0000 C.3     1  UNL1       -0.0533
      4 C           5.4641   -0.0600    0.0000 C.3     1  UNL1       -0.0466
      5 C           2.8660   -0.5600    0.0000 C.3     1  UNL1       -0.0559
      6 C           6.3301   -0.5600    0.0000 C.3     1  UNL1        0.0028
      7 C           2.0000   -0.0600    0.0000 C.3     1  UNL1       -0.0653
      8 C           7.1962   -0.0600    0.0000 C.2     1  UNL1        0.1203
      9 H           4.1996   -1.0350    0.0000 H       1  UNL1        0.0265
     10 H           4.9966   -1.0350    0.0000 H       1  UNL1        0.0265
     11 H           4.1306    0.4149    0.0000 H       1  UNL1        0.0265
     12 H           3.3335    0.4149    0.0000 H       1  UNL1        0.0265
     13 H           5.8626    0.4149    0.0000 H       1  UNL1        0.0269
     14 H           5.0656    0.4149    0.0000 H       1  UNL1        0.0269
     15 H           2.4675   -1.0350    0.0000 H       1  UNL1        0.0263
     16 H           3.2646   -1.0350    0.0000 H       1  UNL1        0.0263
     17 H           5.9316   -1.0350    0.0000 H       1  UNL1        0.0339
     18 H           6.7287   -1.0350    0.0000 H       1  UNL1        0.0339
     19 H           2.3100    0.4769    0.0000 H       1  UNL1        0.0230
     20 H           1.4631    0.2500    0.0000 H       1  UNL1        0.0230
     21 H           1.6900   -0.5969    0.0000 H       1  UNL1        0.0230
     22 H           7.1962    0.5600    0.0000 H       1  UNL1        0.1026
@<TRIPOS>BOND
     1     1     8    2
     2     2     3    1
     3     2     4    1
     4     2     9    1
     5     2    10    1
     6     3     5    1
     7     3    11    1
     8     3    12    1
     9     4     6    1
    10     4    13    1
    11     4    14    1
    12     5     7    1
    13     5    15    1
    14     5    16    1
    15     6     8    1
    16     6    17    1
    17     6    18    1
    18     7    19    1
    19     7    20    1
    20     7    21    1
    21     8    22    1
