@<TRIPOS>MOLECULE
8051
 22 21 0 0 0
SMALL
GASTEIGER

@<TRIPOS>ATOM
      1 O           2.8660   -0.7500    0.0000 O.2     1  UNL1       -0.2977
      2 C           5.4641    0.7500    0.0000 C.3     1  UNL1       -0.0529
      3 C           4.5981    0.2500    0.0000 C.3     1  UNL1       -0.0464
      4 C           6.3301    0.2500    0.0000 C.3     1  UNL1       -0.0559
      5 C           3.7320    0.7500    0.0000 C.3     1  UNL1        0.0055
      6 C           7.1962    0.7500    0.0000 C.3     1  UNL1       -0.0653
      7 C           2.8660    0.2500    0.0000 C.2     1  UNL1        0.1303
      8 C           2.0000    0.7500    0.0000 C.3     1  UNL1       -0.0061
      9 H           5.8626    1.2250    0.0000 H       1  UNL1        0.0265
     10 H           5.0656    1.2250    0.0000 H       1  UNL1        0.0265
     11 H           4.1996   -0.2249    0.0000 H       1  UNL1        0.0269
     12 H           4.9966   -0.2249    0.0000 H       1  UNL1        0.0269
     13 H           5.9316   -0.2249    0.0000 H       1  UNL1        0.0263
     14 H           6.7287   -0.2249    0.0000 H       1  UNL1        0.0263
     15 H           4.1306    1.2250    0.0000 H       1  UNL1        0.0341
     16 H           3.3335    1.2250    0.0000 H       1  UNL1        0.0341
     17 H           7.5062    0.2131    0.0000 H       1  UNL1        0.0230
     18 H           7.7331    1.0600    0.0000 H       1  UNL1        0.0230
     19 H           6.8862    1.2869    0.0000 H       1  UNL1        0.0230
     20 H           2.3100    1.2869    0.0000 H       1  UNL1        0.0306
     21 H           1.4631    1.0600    0.0000 H       1  UNL1        0.0306
     22 H           1.6900    0.2131    0.0000 H       1  UNL1        0.0306
@<TRIPOS>BOND
     1     1     7    2
     2     2     3    1
     3     2     4    1
     4     2     9    1
     5     2    10    1
     6     3     5    1
     7     3    11    1
     8     3    12    1
     9     4     6    1
    10     4    13    1
    11     4    14    1
    12     5     7    1
    13     5    15    1
    14     5    16    1
    15     6    17    1
    16     6    18    1
    17     6    19    1
    18     7     8    1
    19     8    20    1
    20     8    21    1
    21     8    22    1
