@<TRIPOS>MOLECULE
8129
 24 23 0 0 0
SMALL
GASTEIGER

@<TRIPOS>ATOM
      1 O           2.5369    0.2500    0.0000 O.3     1  UNL1       -0.3950
      2 C           6.0010    0.2500    0.0000 C.3     1  UNL1       -0.0530
      3 C           5.1350   -0.2500    0.0000 C.3     1  UNL1       -0.0510
      4 C           6.8671   -0.2500    0.0000 C.3     1  UNL1       -0.0533
      5 C           4.2690    0.2500    0.0000 C.3     1  UNL1       -0.0297
      6 C           7.7331    0.2500    0.0000 C.3     1  UNL1       -0.0559
      7 C           3.4030   -0.2500    0.0000 C.3     1  UNL1        0.0442
      8 C           8.5991   -0.2500    0.0000 C.3     1  UNL1       -0.0653
      9 H           6.3996    0.7249    0.0000 H       1  UNL1        0.0265
     10 H           5.6025    0.7249    0.0000 H       1  UNL1        0.0265
     11 H           4.7365   -0.7249    0.0000 H       1  UNL1        0.0266
     12 H           5.5335   -0.7249    0.0000 H       1  UNL1        0.0266
     13 H           6.4685   -0.7249    0.0000 H       1  UNL1        0.0265
     14 H           7.2656   -0.7249    0.0000 H       1  UNL1        0.0265
     15 H           4.6675    0.7249    0.0000 H       1  UNL1        0.0287
     16 H           3.8705    0.7249    0.0000 H       1  UNL1        0.0287
     17 H           8.1316    0.7249    0.0000 H       1  UNL1        0.0263
     18 H           7.3346    0.7249    0.0000 H       1  UNL1        0.0263
     19 H           3.0044   -0.7249    0.0000 H       1  UNL1        0.0557
     20 H           3.8015   -0.7249    0.0000 H       1  UNL1        0.0557
     21 H           8.2891   -0.7869    0.0000 H       1  UNL1        0.0230
     22 H           9.1360   -0.5600    0.0000 H       1  UNL1        0.0230
     23 H           8.9091    0.2869    0.0000 H       1  UNL1        0.0230
     24 H           2.0000   -0.0600    0.0000 H       1  UNL1        0.2094
@<TRIPOS>BOND
     1     1     7    1
     2     1    24    1
     3     2     3    1
     4     2     4    1
     5     2     9    1
     6     2    10    1
     7     3     5    1
     8     3    11    1
     9     3    12    1
    10     4     6    1
    11     4    13    1
    12     4    14    1
    13     5     7    1
    14     5    15    1
    15     5    16    1
    16     6     8    1
    17     6    17    1
    18     6    18    1
    19     7    19    1
    20     7    20    1
    21     8    21    1
    22     8    22    1
    23     8    23    1
