@<TRIPOS>MOLECULE
11610
 21 20 0 0 0
SMALL
GASTEIGER

@<TRIPOS>ATOM
      1 C           5.4641    0.2500    0.0000 C.3     1  UNL1       -0.0530
      2 C           4.5981   -0.2500    0.0000 C.3     1  UNL1       -0.0496
      3 C           6.3301   -0.2500    0.0000 C.3     1  UNL1       -0.0559
      4 C           3.7320    0.2500    0.0000 C.3     1  UNL1       -0.0350
      5 C           7.1962    0.2500    0.0000 C.3     1  UNL1       -0.0653
      6 C           2.8660   -0.2500    0.0000 C.2     1  UNL1       -0.0911
      7 C           2.0000    0.2500    0.0000 C.2     1  UNL1       -0.1026
      8 H           5.8626    0.7249    0.0000 H       1  UNL1        0.0265
      9 H           5.0656    0.7249    0.0000 H       1  UNL1        0.0265
     10 H           4.1996   -0.7249    0.0000 H       1  UNL1        0.0268
     11 H           4.9966   -0.7249    0.0000 H       1  UNL1        0.0268
     12 H           5.9316   -0.7249    0.0000 H       1  UNL1        0.0263
     13 H           6.7287   -0.7249    0.0000 H       1  UNL1        0.0263
     14 H           4.1306    0.7249    0.0000 H       1  UNL1        0.0307
     15 H           3.3335    0.7249    0.0000 H       1  UNL1        0.0307
     16 H           7.5062   -0.2869    0.0000 H       1  UNL1        0.0230
     17 H           7.7331    0.5600    0.0000 H       1  UNL1        0.0230
     18 H           6.8862    0.7869    0.0000 H       1  UNL1        0.0230
     19 H           2.8660   -0.8700    0.0000 H       1  UNL1        0.0566
     20 H           2.0000    0.8700    0.0000 H       1  UNL1        0.0532
     21 H           1.4631   -0.0600    0.0000 H       1  UNL1        0.0532
@<TRIPOS>BOND
     1     1     2    1
     2     1     3    1
     3     1     8    1
     4     1     9    1
     5     2     4    1
     6     2    10    1
     7     2    11    1
     8     3     5    1
     9     3    12    1
    10     3    13    1
    11     4     6    1
    12     4    14    1
    13     4    15    1
    14     5    16    1
    15     5    17    1
    16     5    18    1
    17     6     7    2
    18     6    19    1
    19     7    20    1
    20     7    21    1
