@<TRIPOS>MOLECULE
12178
 21 20 0 0 0
SMALL
GASTEIGER

@<TRIPOS>ATOM
      1 O           2.5369    1.0000    0.0000 O.3     1  UNL1       -0.3918
      2 C           3.4030    0.5000    0.0000 C.3     1  UNL1        0.0550
      3 C           4.2690    1.0000    0.0000 C.3     1  UNL1       -0.0271
      4 C           3.4030   -0.5000    0.0000 C.3     1  UNL1       -0.0297
      5 C           5.1350    0.5000    0.0000 C.3     1  UNL1       -0.0536
      6 C           2.5369   -1.0000    0.0000 C.3     1  UNL1       -0.0629
      7 C           6.0010    1.0000    0.0000 C.3     1  UNL1       -0.0652
      8 H           3.4030    1.3500    0.0000 H       1  UNL1        0.0593
      9 H           4.6675    1.4750    0.0000 H       1  UNL1        0.0290
     10 H           3.8705    1.4750    0.0000 H       1  UNL1        0.0290
     11 H           3.6150   -1.0826    0.0000 H       1  UNL1        0.0287
     12 H           4.0135   -0.3923    0.0000 H       1  UNL1        0.0287
     13 H           4.7365    0.0251    0.0000 H       1  UNL1        0.0263
     14 H           5.5335    0.0251    0.0000 H       1  UNL1        0.0263
     15 H           2.2269   -0.4631    0.0000 H       1  UNL1        0.0231
     16 H           2.0000   -1.3100    0.0000 H       1  UNL1        0.0231
     17 H           2.8469   -1.5369    0.0000 H       1  UNL1        0.0231
     18 H           6.3110    0.4631    0.0000 H       1  UNL1        0.0230
     19 H           6.5380    1.3100    0.0000 H       1  UNL1        0.0230
     20 H           5.6910    1.5369    0.0000 H       1  UNL1        0.0230
     21 H           2.0000    0.6900    0.0000 H       1  UNL1        0.2098
@<TRIPOS>BOND
     1     1     2    1
     2     1    21    1
     3     2     3    1
     4     2     4    1
     5     2     8    1
     6     3     5    1
     7     3     9    1
     8     3    10    1
     9     4     6    1
    10     4    11    1
    11     4    12    1
    12     5     7    1
    13     5    13    1
    14     5    14    1
    15     6    15    1
    16     6    16    1
    17     6    17    1
    18     7    18    1
    19     7    19    1
    20     7    20    1
