@<TRIPOS>MOLECULE
8103
 21 20 0 0 0
SMALL
GASTEIGER

@<TRIPOS>ATOM
      1 O           7.1962    0.2500    0.0000 O.3     1  UNL1       -0.3950
      2 C           4.5981   -0.2500    0.0000 C.3     1  UNL1       -0.0510
      3 C           3.7320    0.2500    0.0000 C.3     1  UNL1       -0.0532
      4 C           5.4641    0.2500    0.0000 C.3     1  UNL1       -0.0297
      5 C           2.8660   -0.2500    0.0000 C.3     1  UNL1       -0.0559
      6 C           6.3301   -0.2500    0.0000 C.3     1  UNL1        0.0442
      7 C           2.0000    0.2500    0.0000 C.3     1  UNL1       -0.0653
      8 H           4.1996   -0.7249    0.0000 H       1  UNL1        0.0266
      9 H           4.9966   -0.7249    0.0000 H       1  UNL1        0.0266
     10 H           4.1306    0.7249    0.0000 H       1  UNL1        0.0265
     11 H           3.3335    0.7249    0.0000 H       1  UNL1        0.0265
     12 H           5.8626    0.7249    0.0000 H       1  UNL1        0.0287
     13 H           5.0656    0.7249    0.0000 H       1  UNL1        0.0287
     14 H           2.4675   -0.7249    0.0000 H       1  UNL1        0.0263
     15 H           3.2646   -0.7249    0.0000 H       1  UNL1        0.0263
     16 H           5.9316   -0.7249    0.0000 H       1  UNL1        0.0557
     17 H           6.7287   -0.7249    0.0000 H       1  UNL1        0.0557
     18 H           2.3100    0.7869    0.0000 H       1  UNL1        0.0230
     19 H           1.4631    0.5600    0.0000 H       1  UNL1        0.0230
     20 H           1.6900   -0.2869    0.0000 H       1  UNL1        0.0230
     21 H           7.7331   -0.0600    0.0000 H       1  UNL1        0.2094
@<TRIPOS>BOND
     1     1     6    1
     2     1    21    1
     3     2     3    1
     4     2     4    1
     5     2     8    1
     6     2     9    1
     7     3     5    1
     8     3    10    1
     9     3    11    1
    10     4     6    1
    11     4    12    1
    12     4    13    1
    13     5     7    1
    14     5    14    1
    15     5    15    1
    16     6    16    1
    17     6    17    1
    18     7    18    1
    19     7    19    1
    20     7    20    1
