@<TRIPOS>MOLECULE
6184
 19 18 0 0 0
SMALL
GASTEIGER

@<TRIPOS>ATOM
      1 O           2.0000    0.5600    0.0000 O.2     1  UNL1       -0.3010
      2 C           5.4641    0.5600    0.0000 C.3     1  UNL1       -0.0529
      3 C           4.5981    0.0600    0.0000 C.3     1  UNL1       -0.0466
      4 C           6.3301    0.0600    0.0000 C.3     1  UNL1       -0.0559
      5 C           3.7320    0.5600    0.0000 C.3     1  UNL1        0.0028
      6 C           7.1962    0.5600    0.0000 C.3     1  UNL1       -0.0653
      7 C           2.8660    0.0600    0.0000 C.2     1  UNL1        0.1203
      8 H           5.8626    1.0350    0.0000 H       1  UNL1        0.0265
      9 H           5.0656    1.0350    0.0000 H       1  UNL1        0.0265
     10 H           4.1996   -0.4149    0.0000 H       1  UNL1        0.0269
     11 H           4.9966   -0.4149    0.0000 H       1  UNL1        0.0269
     12 H           5.9316   -0.4149    0.0000 H       1  UNL1        0.0263
     13 H           6.7287   -0.4149    0.0000 H       1  UNL1        0.0263
     14 H           4.1306    1.0350    0.0000 H       1  UNL1        0.0339
     15 H           3.3335    1.0350    0.0000 H       1  UNL1        0.0339
     16 H           7.5062    0.0231    0.0000 H       1  UNL1        0.0230
     17 H           7.7331    0.8700    0.0000 H       1  UNL1        0.0230
     18 H           6.8862    1.0969    0.0000 H       1  UNL1        0.0230
     19 H           2.8660   -0.5600    0.0000 H       1  UNL1        0.1026
@<TRIPOS>BOND
     1     1     7    2
     2     2     3    1
     3     2     4    1
     4     2     8    1
     5     2     9    1
     6     3     5    1
     7     3    10    1
     8     3    11    1
     9     4     6    1
    10     4    12    1
    11     4    13    1
    12     5     7    1
    13     5    14    1
    14     5    15    1
    15     6    16    1
    16     6    17    1
    17     6    18    1
    18     7    19    1
