@<TRIPOS>MOLECULE
10870
 24 24 0 0 0
SMALL
GASTEIGER

@<TRIPOS>ATOM
      1 C           3.7320    1.2500    0.0000 C.3     1  UNL1       -0.0427
      2 C           2.8660    0.7500    0.0000 C.3     1  UNL1       -0.0253
      3 C           2.8660   -0.2500    0.0000 C.ar    1  UNL1       -0.0471
      4 C           3.7320    2.2500    0.0000 C.3     1  UNL1       -0.0624
      5 C           4.5981    0.7500    0.0000 C.3     1  UNL1       -0.0624
      6 C           2.0000   -0.7500    0.0000 C.ar    1  UNL1       -0.0586
      7 C           3.7320   -0.7500    0.0000 C.ar    1  UNL1       -0.0586
      8 C           2.0000   -1.7500    0.0000 C.ar    1  UNL1       -0.0615
      9 C           3.7320   -1.7500    0.0000 C.ar    1  UNL1       -0.0615
     10 C           2.8660   -2.2500    0.0000 C.ar    1  UNL1       -0.0617
     11 H           3.7320    0.6300    0.0000 H       1  UNL1        0.0299
     12 H           2.6540    1.3326    0.0000 H       1  UNL1        0.0316
     13 H           2.2554    0.6423    0.0000 H       1  UNL1        0.0316
     14 H           4.3520    2.2500    0.0000 H       1  UNL1        0.0232
     15 H           3.7320    2.8700    0.0000 H       1  UNL1        0.0232
     16 H           3.1120    2.2500    0.0000 H       1  UNL1        0.0232
     17 H           4.2881    0.2131    0.0000 H       1  UNL1        0.0232
     18 H           5.1350    0.4400    0.0000 H       1  UNL1        0.0232
     19 H           4.9081    1.2869    0.0000 H       1  UNL1        0.0232
     20 H           1.4631   -0.4400    0.0000 H       1  UNL1        0.0620
     21 H           4.2690   -0.4400    0.0000 H       1  UNL1        0.0620
     22 H           1.4631   -2.0600    0.0000 H       1  UNL1        0.0618
     23 H           4.2690   -2.0600    0.0000 H       1  UNL1        0.0618
     24 H           2.8660   -2.8700    0.0000 H       1  UNL1        0.0618
@<TRIPOS>BOND
     1     1     2    1
     2     1     4    1
     3     1     5    1
     4     1    11    1
     5     2     3    1
     6     2    12    1
     7     2    13    1
     8     3     6   ar
     9     3     7   ar
    10     4    14    1
    11     4    15    1
    12     4    16    1
    13     5    17    1
    14     5    18    1
    15     5    19    1
    16     6     8   ar
    17     6    20    1
    18     7     9   ar
    19     7    21    1
    20     8    10   ar
    21     8    22    1
    22     9    10   ar
    23     9    23    1
    24    10    24    1
