@<TRIPOS>MOLECULE
7929
 18 18 0 0 0
SMALL
GASTEIGER

@<TRIPOS>ATOM
      1 C           2.8660   -1.0000    0.0000 C.ar    1  UNL1       -0.0502
      2 C           3.7320    0.5000    0.0000 C.ar    1  UNL1       -0.0502
      3 C           2.8660    0.0000    0.0000 C.ar    1  UNL1       -0.0559
      4 C           3.7320   -1.5000    0.0000 C.ar    1  UNL1       -0.0588
      5 C           4.5981   -0.0000    0.0000 C.ar    1  UNL1       -0.0588
      6 C           4.5981   -1.0000    0.0000 C.ar    1  UNL1       -0.0613
      7 C           2.0000   -1.5000    0.0000 C.3     1  UNL1       -0.0397
      8 C           3.7320    1.5000    0.0000 C.3     1  UNL1       -0.0397
      9 H           2.3291    0.3100    0.0000 H       1  UNL1        0.0623
     10 H           3.7320   -2.1200    0.0000 H       1  UNL1        0.0620
     11 H           5.1350    0.3100    0.0000 H       1  UNL1        0.0620
     12 H           5.1350   -1.3100    0.0000 H       1  UNL1        0.0618
     13 H           1.6900   -0.9631    0.0000 H       1  UNL1        0.0278
     14 H           1.4631   -1.8100    0.0000 H       1  UNL1        0.0278
     15 H           2.3100   -2.0369    0.0000 H       1  UNL1        0.0278
     16 H           4.3520    1.5000    0.0000 H       1  UNL1        0.0278
     17 H           3.7320    2.1200    0.0000 H       1  UNL1        0.0278
     18 H           3.1120    1.5000    0.0000 H       1  UNL1        0.0278
@<TRIPOS>BOND
     1     1     3   ar
     2     1     4   ar
     3     1     7    1
     4     2     3   ar
     5     2     5   ar
     6     2     8    1
     7     3     9    1
     8     4     6   ar
     9     4    10    1
    10     5     6   ar
    11     5    11    1
    12     6    12    1
    13     7    13    1
    14     7    14    1
    15     7    15    1
    16     8    16    1
    17     8    17    1
    18     8    18    1
