@<TRIPOS>MOLECULE
15413
 18 17 0 0 0
SMALL
GASTEIGER

@<TRIPOS>ATOM
      1 O           3.7320    0.5000    0.0000 O.3     1  UNL1       -0.3774
      2 C           2.8660    0.0000    0.0000 C.3     1  UNL1        0.0608
      3 C           2.0000   -0.5000    0.0000 C.3     1  UNL1       -0.0364
      4 C           2.3660    0.8660    0.0000 C.3     1  UNL1       -0.0364
      5 C           3.3660   -0.8660    0.0000 C.3     1  UNL1       -0.0364
      6 C           4.5981    0.0000    0.0000 C.3     1  UNL1        0.0371
      7 H           1.6900    0.0369    0.0000 H       1  UNL1        0.0257
      8 H           1.4631   -0.8100    0.0000 H       1  UNL1        0.0257
      9 H           2.3100   -1.0369    0.0000 H       1  UNL1        0.0257
     10 H           2.9030    1.1760    0.0000 H       1  UNL1        0.0257
     11 H           2.0560    1.4030    0.0000 H       1  UNL1        0.0257
     12 H           1.8291    0.5560    0.0000 H       1  UNL1        0.0257
     13 H           2.8291   -1.1760    0.0000 H       1  UNL1        0.0257
     14 H           3.6760   -1.4030    0.0000 H       1  UNL1        0.0257
     15 H           3.9030   -0.5560    0.0000 H       1  UNL1        0.0257
     16 H           4.2881   -0.5369    0.0000 H       1  UNL1        0.0524
     17 H           5.1350   -0.3100    0.0000 H       1  UNL1        0.0524
     18 H           4.9081    0.5369    0.0000 H       1  UNL1        0.0524
@<TRIPOS>BOND
     1     1     2    1
     2     1     6    1
     3     2     3    1
     4     2     4    1
     5     2     5    1
     6     3     7    1
     7     3     8    1
     8     3     9    1
     9     4    10    1
    10     4    11    1
    11     4    12    1
    12     5    13    1
    13     5    14    1
    14     5    15    1
    15     6    16    1
    16     6    17    1
    17     6    18    1
