@<TRIPOS>MOLECULE
297
 5 4 0 0 0
SMALL
GASTEIGER

@<TRIPOS>ATOM
      1 C           2.5369    0.0000    0.0000 C.3     1  UNL1       -0.0776
      2 H           3.0739    0.3100    0.0000 H       1  UNL1        0.0194
      3 H           2.0000   -0.3100    0.0000 H       1  UNL1        0.0194
      4 H           2.2269    0.5369    0.0000 H       1  UNL1        0.0194
      5 H           2.8469   -0.5369    0.0000 H       1  UNL1        0.0194
@<TRIPOS>BOND
     1     1     2    1
     2     1     3    1
     3     1     4    1
     4     1     5    1
