@<TRIPOS>MOLECULE
7843
 14 13 0 0 0
SMALL
GASTEIGER

@<TRIPOS>ATOM
      1 C           2.8660   -0.2500    0.0000 C.3     1  UNL1       -0.0562
      2 C           3.7320    0.2500    0.0000 C.3     1  UNL1       -0.0562
      3 C           2.0000    0.2500    0.0000 C.3     1  UNL1       -0.0653
      4 C           4.5981   -0.2500    0.0000 C.3     1  UNL1       -0.0653
      5 H           2.4675   -0.7249    0.0000 H       1  UNL1        0.0263
      6 H           3.2646   -0.7249    0.0000 H       1  UNL1        0.0263
      7 H           4.1306    0.7249    0.0000 H       1  UNL1        0.0263
      8 H           3.3335    0.7249    0.0000 H       1  UNL1        0.0263
      9 H           2.3100    0.7869    0.0000 H       1  UNL1        0.0230
     10 H           1.4631    0.5600    0.0000 H       1  UNL1        0.0230
     11 H           1.6900   -0.2869    0.0000 H       1  UNL1        0.0230
     12 H           4.2881   -0.7869    0.0000 H       1  UNL1        0.0230
     13 H           5.1350   -0.5600    0.0000 H       1  UNL1        0.0230
     14 H           4.9081    0.2869    0.0000 H       1  UNL1        0.0230
@<TRIPOS>BOND
     1     1     2    1
     2     1     3    1
     3     1     5    1
     4     1     6    1
     5     2     4    1
     6     2     7    1
     7     2     8    1
     8     3     9    1
     9     3    10    1
    10     3    11    1
    11     4    12    1
    12     4    13    1
    13     4    14    1
