@<TRIPOS>MOLECULE
10864
 27 27 0 0 0
SMALL
GASTEIGER

@<TRIPOS>ATOM
      1 C           3.7320    0.5000    0.0000 C.3     1  UNL1       -0.0491
      2 C           3.7320    1.5000    0.0000 C.3     1  UNL1       -0.0530
      3 C           2.8660    0.0000    0.0000 C.3     1  UNL1       -0.0277
      4 C           4.5981    2.0000    0.0000 C.3     1  UNL1       -0.0559
      5 C           2.8660   -1.0000    0.0000 C.ar    1  UNL1       -0.0474
      6 C           4.5981    3.0000    0.0000 C.3     1  UNL1       -0.0653
      7 C           2.0000   -1.5000    0.0000 C.ar    1  UNL1       -0.0586
      8 C           3.7320   -1.5000    0.0000 C.ar    1  UNL1       -0.0586
      9 C           2.0000   -2.5000    0.0000 C.ar    1  UNL1       -0.0615
     10 C           3.7320   -2.5000    0.0000 C.ar    1  UNL1       -0.0615
     11 C           2.8660   -3.0000    0.0000 C.ar    1  UNL1       -0.0617
     12 H           3.9441   -0.0826    0.0000 H       1  UNL1        0.0268
     13 H           4.3426    0.6077    0.0000 H       1  UNL1        0.0268
     14 H           3.5200    2.0826    0.0000 H       1  UNL1        0.0265
     15 H           3.1215    1.3923    0.0000 H       1  UNL1        0.0265
     16 H           2.6540    0.5826    0.0000 H       1  UNL1        0.0313
     17 H           2.2554   -0.1077    0.0000 H       1  UNL1        0.0313
     18 H           4.8101    1.4174    0.0000 H       1  UNL1        0.0263
     19 H           5.2087    2.1077    0.0000 H       1  UNL1        0.0263
     20 H           5.2181    3.0000    0.0000 H       1  UNL1        0.0230
     21 H           4.5981    3.6200    0.0000 H       1  UNL1        0.0230
     22 H           3.9781    3.0000    0.0000 H       1  UNL1        0.0230
     23 H           1.4631   -1.1900    0.0000 H       1  UNL1        0.0620
     24 H           4.2690   -1.1900    0.0000 H       1  UNL1        0.0620
     25 H           1.4631   -2.8100    0.0000 H       1  UNL1        0.0618
     26 H           4.2690   -2.8100    0.0000 H       1  UNL1        0.0618
     27 H           2.8660   -3.6200    0.0000 H       1  UNL1        0.0618
@<TRIPOS>BOND
     1     1     2    1
     2     1     3    1
     3     1    12    1
     4     1    13    1
     5     2     4    1
     6     2    14    1
     7     2    15    1
     8     3     5    1
     9     3    16    1
    10     3    17    1
    11     4     6    1
    12     4    18    1
    13     4    19    1
    14     5     7   ar
    15     5     8   ar
    16     6    20    1
    17     6    21    1
    18     6    22    1
    19     7     9   ar
    20     7    23    1
    21     8    10   ar
    22     8    24    1
    23     9    11   ar
    24     9    25    1
    25    10    11   ar
    26    10    26    1
    27    11    27    1
