@<TRIPOS>MOLECULE
31289
 28 27 0 0 0
SMALL
GASTEIGER

@<TRIPOS>ATOM
      1 O           9.7942    0.5600    0.0000 O.2     1  UNL1       -0.3010
      2 C           5.4641    0.0600    0.0000 C.3     1  UNL1       -0.0530
      3 C           4.5981    0.5600    0.0000 C.3     1  UNL1       -0.0531
      4 C           6.3301    0.5600    0.0000 C.3     1  UNL1       -0.0527
      5 C           3.7320    0.0600    0.0000 C.3     1  UNL1       -0.0533
      6 C           7.1962    0.0600    0.0000 C.3     1  UNL1       -0.0466
      7 C           2.8660    0.5600    0.0000 C.3     1  UNL1       -0.0559
      8 C           8.0622    0.5600    0.0000 C.3     1  UNL1        0.0028
      9 C           2.0000    0.0600    0.0000 C.3     1  UNL1       -0.0653
     10 C           8.9282    0.0600    0.0000 C.2     1  UNL1        0.1203
     11 H           5.0656   -0.4149    0.0000 H       1  UNL1        0.0265
     12 H           5.8626   -0.4149    0.0000 H       1  UNL1        0.0265
     13 H           4.9966    1.0350    0.0000 H       1  UNL1        0.0265
     14 H           4.1996    1.0350    0.0000 H       1  UNL1        0.0265
     15 H           6.7287    1.0350    0.0000 H       1  UNL1        0.0265
     16 H           5.9316    1.0350    0.0000 H       1  UNL1        0.0265
     17 H           3.3335   -0.4149    0.0000 H       1  UNL1        0.0265
     18 H           4.1306   -0.4149    0.0000 H       1  UNL1        0.0265
     19 H           6.7976   -0.4149    0.0000 H       1  UNL1        0.0269
     20 H           7.5947   -0.4149    0.0000 H       1  UNL1        0.0269
     21 H           3.2646    1.0350    0.0000 H       1  UNL1        0.0263
     22 H           2.4675    1.0350    0.0000 H       1  UNL1        0.0263
     23 H           8.4607    1.0350    0.0000 H       1  UNL1        0.0339
     24 H           7.6636    1.0350    0.0000 H       1  UNL1        0.0339
     25 H           1.6900    0.5969    0.0000 H       1  UNL1        0.0230
     26 H           1.4631   -0.2500    0.0000 H       1  UNL1        0.0230
     27 H           2.3100   -0.4769    0.0000 H       1  UNL1        0.0230
     28 H           8.9282   -0.5600    0.0000 H       1  UNL1        0.1026
@<TRIPOS>BOND
     1     1    10    2
     2     2     3    1
     3     2     4    1
     4     2    11    1
     5     2    12    1
     6     3     5    1
     7     3    13    1
     8     3    14    1
     9     4     6    1
    10     4    15    1
    11     4    16    1
    12     5     7    1
    13     5    17    1
    14     5    18    1
    15     6     8    1
    16     6    19    1
    17     6    20    1
    18     7     9    1
    19     7    21    1
    20     7    22    1
    21     8    10    1
    22     8    23    1
    23     8    24    1
    24     9    25    1
    25     9    26    1
    26     9    27    1
    27    10    28    1
