@<TRIPOS>MOLECULE
335
 16 16 0 0 0
SMALL
GASTEIGER

@<TRIPOS>ATOM
      1 O           3.7320    1.3450    0.0000 O.3     1  UNL1       -0.5065
      2 C           2.8660   -0.1550    0.0000 C.ar    1  UNL1       -0.0090
      3 C           3.7320    0.3450    0.0000 C.ar    1  UNL1        0.1197
      4 C           2.8660   -1.1550    0.0000 C.ar    1  UNL1       -0.0554
      5 C           2.0000    0.3450    0.0000 C.3     1  UNL1       -0.0363
      6 C           4.5981   -0.1550    0.0000 C.ar    1  UNL1       -0.0199
      7 C           3.7320   -1.6550    0.0000 C.ar    1  UNL1       -0.0613
      8 C           4.5981   -1.1550    0.0000 C.ar    1  UNL1       -0.0583
      9 H           2.3291   -1.4650    0.0000 H       1  UNL1        0.0621
     10 H           2.3100    0.8819    0.0000 H       1  UNL1        0.0279
     11 H           1.4631    0.6550    0.0000 H       1  UNL1        0.0279
     12 H           1.6900   -0.1919    0.0000 H       1  UNL1        0.0279
     13 H           5.1350    0.1550    0.0000 H       1  UNL1        0.0654
     14 H           3.7320   -2.2750    0.0000 H       1  UNL1        0.0618
     15 H           5.1350   -1.4650    0.0000 H       1  UNL1        0.0619
     16 H           4.2690    1.6550    0.0000 H       1  UNL1        0.2921
@<TRIPOS>BOND
     1     1     3    1
     2     1    16    1
     3     2     3   ar
     4     2     4   ar
     5     2     5    1
     6     3     6   ar
     7     4     7   ar
     8     4     9    1
     9     5    10    1
    10     5    11    1
    11     5    12    1
    12     6     8   ar
    13     6    13    1
    14     7     8   ar
    15     7    14    1
    16     8    15    1
