@<TRIPOS>MOLECULE
957
 27 26 0 0 0
SMALL
GASTEIGER

@<TRIPOS>ATOM
      1 O           8.9282   -0.2500    0.0000 O.3     1  UNL1       -0.3950
      2 C           5.4641   -0.2500    0.0000 C.3     1  UNL1       -0.0530
      3 C           4.5981    0.2500    0.0000 C.3     1  UNL1       -0.0531
      4 C           6.3301    0.2500    0.0000 C.3     1  UNL1       -0.0510
      5 C           3.7320   -0.2500    0.0000 C.3     1  UNL1       -0.0533
      6 C           7.1962   -0.2500    0.0000 C.3     1  UNL1       -0.0297
      7 C           2.8660    0.2500    0.0000 C.3     1  UNL1       -0.0559
      8 C           8.0622    0.2500    0.0000 C.3     1  UNL1        0.0442
      9 C           2.0000   -0.2500    0.0000 C.3     1  UNL1       -0.0653
     10 H           5.0656   -0.7249    0.0000 H       1  UNL1        0.0265
     11 H           5.8626   -0.7249    0.0000 H       1  UNL1        0.0265
     12 H           4.9966    0.7249    0.0000 H       1  UNL1        0.0265
     13 H           4.1996    0.7249    0.0000 H       1  UNL1        0.0265
     14 H           6.7287    0.7249    0.0000 H       1  UNL1        0.0266
     15 H           5.9316    0.7249    0.0000 H       1  UNL1        0.0266
     16 H           3.3335   -0.7249    0.0000 H       1  UNL1        0.0265
     17 H           4.1306   -0.7249    0.0000 H       1  UNL1        0.0265
     18 H           6.7976   -0.7249    0.0000 H       1  UNL1        0.0287
     19 H           7.5947   -0.7249    0.0000 H       1  UNL1        0.0287
     20 H           3.2646    0.7249    0.0000 H       1  UNL1        0.0263
     21 H           2.4675    0.7249    0.0000 H       1  UNL1        0.0263
     22 H           8.4607    0.7249    0.0000 H       1  UNL1        0.0557
     23 H           7.6636    0.7249    0.0000 H       1  UNL1        0.0557
     24 H           1.6900    0.2869    0.0000 H       1  UNL1        0.0230
     25 H           1.4631   -0.5600    0.0000 H       1  UNL1        0.0230
     26 H           2.3100   -0.7869    0.0000 H       1  UNL1        0.0230
     27 H           9.4651    0.0600    0.0000 H       1  UNL1        0.2094
@<TRIPOS>BOND
     1     1     8    1
     2     1    27    1
     3     2     3    1
     4     2     4    1
     5     2    10    1
     6     2    11    1
     7     3     5    1
     8     3    12    1
     9     3    13    1
    10     4     6    1
    11     4    14    1
    12     4    15    1
    13     5     7    1
    14     5    16    1
    15     5    17    1
    16     6     8    1
    17     6    18    1
    18     6    19    1
    19     7     9    1
    20     7    20    1
    21     7    21    1
    22     8    22    1
    23     8    23    1
    24     9    24    1
    25     9    25    1
    26     9    26    1
