@<TRIPOS>MOLECULE
454
 25 24 0 0 0
SMALL
GASTEIGER

@<TRIPOS>ATOM
      1 O           2.0000   -0.5600    0.0000 O.2     1  UNL1       -0.3010
      2 C           6.3301   -0.0600    0.0000 C.3     1  UNL1       -0.0531
      3 C           5.4641   -0.5600    0.0000 C.3     1  UNL1       -0.0527
      4 C           7.1962   -0.5600    0.0000 C.3     1  UNL1       -0.0533
      5 C           4.5981   -0.0600    0.0000 C.3     1  UNL1       -0.0466
      6 C           8.0622   -0.0600    0.0000 C.3     1  UNL1       -0.0559
      7 C           3.7320   -0.5600    0.0000 C.3     1  UNL1        0.0028
      8 C           8.9282   -0.5600    0.0000 C.3     1  UNL1       -0.0653
      9 C           2.8660   -0.0600    0.0000 C.2     1  UNL1        0.1203
     10 H           6.7287    0.4149    0.0000 H       1  UNL1        0.0265
     11 H           5.9316    0.4149    0.0000 H       1  UNL1        0.0265
     12 H           5.0656   -1.0350    0.0000 H       1  UNL1        0.0265
     13 H           5.8626   -1.0350    0.0000 H       1  UNL1        0.0265
     14 H           6.7976   -1.0350    0.0000 H       1  UNL1        0.0265
     15 H           7.5947   -1.0350    0.0000 H       1  UNL1        0.0265
     16 H           4.9966    0.4149    0.0000 H       1  UNL1        0.0269
     17 H           4.1996    0.4149    0.0000 H       1  UNL1        0.0269
     18 H           8.4607    0.4149    0.0000 H       1  UNL1        0.0263
     19 H           7.6636    0.4149    0.0000 H       1  UNL1        0.0263
     20 H           3.3335   -1.0350    0.0000 H       1  UNL1        0.0339
     21 H           4.1306   -1.0350    0.0000 H       1  UNL1        0.0339
     22 H           8.6182   -1.0969    0.0000 H       1  UNL1        0.0230
     23 H           9.4651   -0.8700    0.0000 H       1  UNL1        0.0230
     24 H           9.2382   -0.0231    0.0000 H       1  UNL1        0.0230
     25 H           2.8660    0.5600    0.0000 H       1  UNL1        0.1026
@<TRIPOS>BOND
     1     1     9    2
     2     2     3    1
     3     2     4    1
     4     2    10    1
     5     2    11    1
     6     3     5    1
     7     3    12    1
     8     3    13    1
     9     4     6    1
    10     4    14    1
    11     4    15    1
    12     5     7    1
    13     5    16    1
    14     5    17    1
    15     6     8    1
    16     6    18    1
    17     6    19    1
    18     7     9    1
    19     7    20    1
    20     7    21    1
    21     8    22    1
    22     8    23    1
    23     8    24    1
    24     9    25    1
