@<TRIPOS>MOLECULE
7809
 18 18 0 0 0
SMALL
GASTEIGER

@<TRIPOS>ATOM
      1 C           2.8660    1.0000    0.0000 C.ar    1  UNL1       -0.0504
      2 C           2.8660   -1.0000    0.0000 C.ar    1  UNL1       -0.0504
      3 C           3.7320    0.5000    0.0000 C.ar    1  UNL1       -0.0586
      4 C           3.7320   -0.5000    0.0000 C.ar    1  UNL1       -0.0586
      5 C           2.0000    0.5000    0.0000 C.ar    1  UNL1       -0.0586
      6 C           2.0000   -0.5000    0.0000 C.ar    1  UNL1       -0.0586
      7 C           2.8660    2.0000    0.0000 C.3     1  UNL1       -0.0397
      8 C           2.8660   -2.0000    0.0000 C.3     1  UNL1       -0.0397
      9 H           4.2690    0.8100    0.0000 H       1  UNL1        0.0620
     10 H           4.2690   -0.8100    0.0000 H       1  UNL1        0.0620
     11 H           1.4631    0.8100    0.0000 H       1  UNL1        0.0620
     12 H           1.4631   -0.8100    0.0000 H       1  UNL1        0.0620
     13 H           3.4860    2.0000    0.0000 H       1  UNL1        0.0278
     14 H           2.8660    2.6200    0.0000 H       1  UNL1        0.0278
     15 H           2.2460    2.0000    0.0000 H       1  UNL1        0.0278
     16 H           2.2460   -2.0000    0.0000 H       1  UNL1        0.0278
     17 H           2.8660   -2.6200    0.0000 H       1  UNL1        0.0278
     18 H           3.4860   -2.0000    0.0000 H       1  UNL1        0.0278
@<TRIPOS>BOND
     1     1     3   ar
     2     1     5   ar
     3     1     7    1
     4     2     4   ar
     5     2     6   ar
     6     2     8    1
     7     3     4   ar
     8     3     9    1
     9     4    10    1
    10     5     6   ar
    11     5    11    1
    12     6    12    1
    13     7    13    1
    14     7    14    1
    15     7    15    1
    16     8    16    1
    17     8    17    1
    18     8    18    1
