@<TRIPOS>MOLECULE
11428
 18 17 0 0 0
SMALL
GASTEIGER

@<TRIPOS>ATOM
      1 O           2.5369    1.0000    0.0000 O.3     1  UNL1       -0.3918
      2 C           3.4030    0.5000    0.0000 C.3     1  UNL1        0.0548
      3 C           4.2690    1.0000    0.0000 C.3     1  UNL1       -0.0297
      4 C           3.4030   -0.5000    0.0000 C.3     1  UNL1       -0.0297
      5 C           5.1350    0.5000    0.0000 C.3     1  UNL1       -0.0629
      6 C           2.5369   -1.0000    0.0000 C.3     1  UNL1       -0.0629
      7 H           3.4030    1.1200    0.0000 H       1  UNL1        0.0593
      8 H           4.6675    1.4750    0.0000 H       1  UNL1        0.0287
      9 H           3.8705    1.4750    0.0000 H       1  UNL1        0.0287
     10 H           3.6150   -1.0826    0.0000 H       1  UNL1        0.0287
     11 H           4.0135   -0.3923    0.0000 H       1  UNL1        0.0287
     12 H           4.8250   -0.0369    0.0000 H       1  UNL1        0.0231
     13 H           5.6720    0.1900    0.0000 H       1  UNL1        0.0231
     14 H           5.4450    1.0369    0.0000 H       1  UNL1        0.0231
     15 H           2.2269   -0.4631    0.0000 H       1  UNL1        0.0231
     16 H           2.0000   -1.3100    0.0000 H       1  UNL1        0.0231
     17 H           2.8469   -1.5369    0.0000 H       1  UNL1        0.0231
     18 H           2.0000    0.6900    0.0000 H       1  UNL1        0.2098
@<TRIPOS>BOND
     1     1     2    1
     2     1    18    1
     3     2     3    1
     4     2     4    1
     5     2     7    1
     6     3     5    1
     7     3     8    1
     8     3     9    1
     9     4     6    1
    10     4    10    1
    11     4    11    1
    12     5    12    1
    13     5    13    1
    14     5    14    1
    15     6    15    1
    16     6    16    1
    17     6    17    1
