@<TRIPOS>MOLECULE
6419
 8 7 0 0 0
SMALL
GASTEIGER

@<TRIPOS>ATOM
      1 CL          2.0000   -0.8170    0.0000 Cl      1  UNL1       -0.0805
      2 CL          2.3660    0.5490    0.0000 Cl      1  UNL1       -0.0805
      3 CL          3.3660   -1.1830    0.0000 Cl      1  UNL1       -0.0805
      4 CL          4.5981   -0.3170    0.0000 Cl      1  UNL1       -0.1001
      5 CL          3.7320    1.1830    0.0000 Cl      1  UNL1       -0.1001
      6 C           2.8660   -0.3170    0.0000 C.3     1  UNL1        0.2199
      7 C           3.7320    0.1830    0.0000 C.3     1  UNL1        0.1540
      8 H           3.7320   -0.4370    0.0000 H       1  UNL1        0.0677
@<TRIPOS>BOND
     1     1     6    1
     2     2     6    1
     3     3     6    1
     4     4     7    1
     5     5     7    1
     6     6     7    1
     7     7     8    1
