@<TRIPOS>MOLECULE
7895
 16 15 0 0 0
SMALL
GASTEIGER

@<TRIPOS>ATOM
      1 O           2.8660   -0.7500    0.0000 O.2     1  UNL1       -0.2977
      2 C           4.5981    0.2500    0.0000 C.3     1  UNL1       -0.0492
      3 C           3.7320    0.7500    0.0000 C.3     1  UNL1        0.0053
      4 C           5.4641    0.7500    0.0000 C.3     1  UNL1       -0.0649
      5 C           2.8660    0.2500    0.0000 C.2     1  UNL1        0.1303
      6 C           2.0000    0.7500    0.0000 C.3     1  UNL1       -0.0061
      7 H           4.1306    1.2250    0.0000 H       1  UNL1        0.0341
      8 H           3.3335    1.2250    0.0000 H       1  UNL1        0.0341
      9 H           4.1996   -0.2249    0.0000 H       1  UNL1        0.0267
     10 H           4.9966   -0.2249    0.0000 H       1  UNL1        0.0267
     11 H           5.7741    0.2131    0.0000 H       1  UNL1        0.0230
     12 H           6.0010    1.0600    0.0000 H       1  UNL1        0.0230
     13 H           5.1541    1.2869    0.0000 H       1  UNL1        0.0230
     14 H           2.3100    1.2869    0.0000 H       1  UNL1        0.0306
     15 H           1.4631    1.0600    0.0000 H       1  UNL1        0.0306
     16 H           1.6900    0.2131    0.0000 H       1  UNL1        0.0306
@<TRIPOS>BOND
     1     1     5    2
     2     2     3    1
     3     2     4    1
     4     2     9    1
     5     2    10    1
     6     3     5    1
     7     3     7    1
     8     3     8    1
     9     4    11    1
    10     4    12    1
    11     4    13    1
    12     5     6    1
    13     6    14    1
    14     6    15    1
    15     6    16    1
