@<TRIPOS>MOLECULE
11587
 13 12 0 0 0
SMALL
GASTEIGER

@<TRIPOS>ATOM
      1 C           3.7320   -0.2500    0.0000 C.3     1  UNL1       -0.0170
      2 C           4.5981    0.2500    0.0000 C.2     1  UNL1       -0.0874
      3 C           2.8660    0.2500    0.0000 C.2     1  UNL1       -0.0874
      4 C           5.4641   -0.2500    0.0000 C.2     1  UNL1       -0.1023
      5 C           2.0000   -0.2500    0.0000 C.2     1  UNL1       -0.1023
      6 H           3.3335   -0.7249    0.0000 H       1  UNL1        0.0349
      7 H           4.1306   -0.7249    0.0000 H       1  UNL1        0.0349
      8 H           4.5981    0.8700    0.0000 H       1  UNL1        0.0569
      9 H           2.8660    0.8700    0.0000 H       1  UNL1        0.0569
     10 H           5.4641   -0.8700    0.0000 H       1  UNL1        0.0532
     11 H           6.0010    0.0600    0.0000 H       1  UNL1        0.0532
     12 H           1.4631    0.0600    0.0000 H       1  UNL1        0.0532
     13 H           2.0000   -0.8700    0.0000 H       1  UNL1        0.0532
@<TRIPOS>BOND
     1     1     2    1
     2     1     3    1
     3     1     6    1
     4     1     7    1
     5     2     4    2
     6     2     8    1
     7     3     5    2
     8     3     9    1
     9     4    10    1
    10     4    11    1
    11     5    12    1
    12     5    13    1
