@<TRIPOS>MOLECULE
22386
 18 17 0 0 0
SMALL
GASTEIGER

@<TRIPOS>ATOM
      1 O           2.5369    0.7500    0.0000 O.3     1  UNL1       -0.3921
      2 C           4.2690    0.7500    0.0000 C.3     1  UNL1       -0.0274
      3 C           3.4030    0.2500    0.0000 C.3     1  UNL1        0.0524
      4 C           5.1350    0.2500    0.0000 C.3     1  UNL1       -0.0536
      5 C           3.4030   -0.7500    0.0000 C.3     1  UNL1       -0.0389
      6 C           6.0010    0.7500    0.0000 C.3     1  UNL1       -0.0652
      7 H           4.6675    1.2250    0.0000 H       1  UNL1        0.0290
      8 H           3.8705    1.2250    0.0000 H       1  UNL1        0.0290
      9 H           3.4030    0.8700    0.0000 H       1  UNL1        0.0590
     10 H           4.7365   -0.2249    0.0000 H       1  UNL1        0.0263
     11 H           5.5335   -0.2249    0.0000 H       1  UNL1        0.0263
     12 H           2.7830   -0.7500    0.0000 H       1  UNL1        0.0254
     13 H           3.4030   -1.3700    0.0000 H       1  UNL1        0.0254
     14 H           4.0230   -0.7500    0.0000 H       1  UNL1        0.0254
     15 H           6.3110    0.2131    0.0000 H       1  UNL1        0.0230
     16 H           6.5380    1.0600    0.0000 H       1  UNL1        0.0230
     17 H           5.6910    1.2869    0.0000 H       1  UNL1        0.0230
     18 H           2.0000    0.4400    0.0000 H       1  UNL1        0.2098
@<TRIPOS>BOND
     1     1     3    1
     2     1    18    1
     3     2     3    1
     4     2     4    1
     5     2     7    1
     6     2     8    1
     7     3     5    1
     8     3     9    1
     9     4     6    1
    10     4    10    1
    11     4    11    1
    12     5    12    1
    13     5    13    1
    14     5    14    1
    15     6    15    1
    16     6    16    1
    17     6    17    1
