@<TRIPOS>MOLECULE
996
 13 13 0 0 0
SMALL
GASTEIGER

@<TRIPOS>ATOM
      1 O           2.8660    1.3450    0.0000 O.3     1  UNL1       -0.5068
      2 C           2.8660    0.3450    0.0000 C.ar    1  UNL1        0.1169
      3 C           2.0000   -0.1550    0.0000 C.ar    1  UNL1       -0.0202
      4 C           3.7320   -0.1550    0.0000 C.ar    1  UNL1       -0.0202
      5 C           2.0000   -1.1550    0.0000 C.ar    1  UNL1       -0.0583
      6 C           3.7320   -1.1550    0.0000 C.ar    1  UNL1       -0.0583
      7 C           2.8660   -1.6550    0.0000 C.ar    1  UNL1       -0.0615
      8 H           1.4631    0.1550    0.0000 H       1  UNL1        0.0654
      9 H           4.2690    0.1550    0.0000 H       1  UNL1        0.0654
     10 H           1.4631   -1.4650    0.0000 H       1  UNL1        0.0619
     11 H           4.2690   -1.4650    0.0000 H       1  UNL1        0.0619
     12 H           2.8660   -2.2750    0.0000 H       1  UNL1        0.0618
     13 H           3.4030    1.6550    0.0000 H       1  UNL1        0.2921
@<TRIPOS>BOND
     1     1     2    1
     2     1    13    1
     3     2     3   ar
     4     2     4   ar
     5     3     5   ar
     6     3     8    1
     7     4     6   ar
     8     4     9    1
     9     5     7   ar
    10     5    10    1
    11     6     7   ar
    12     6    11    1
    13     7    12    1
