@<TRIPOS>MOLECULE
6334
 11 10 0 0 0
SMALL
GASTEIGER

@<TRIPOS>ATOM
      1 C           2.8660   -0.2500    0.0000 C.3     1  UNL1       -0.0588
      2 C           3.7320    0.2500    0.0000 C.3     1  UNL1       -0.0655
      3 C           2.0000    0.2500    0.0000 C.3     1  UNL1       -0.0655
      4 H           2.4675   -0.7249    0.0000 H       1  UNL1        0.0260
      5 H           3.2646   -0.7249    0.0000 H       1  UNL1        0.0260
      6 H           4.0420   -0.2869    0.0000 H       1  UNL1        0.0230
      7 H           4.2690    0.5600    0.0000 H       1  UNL1        0.0230
      8 H           3.4220    0.7869    0.0000 H       1  UNL1        0.0230
      9 H           2.3100    0.7869    0.0000 H       1  UNL1        0.0230
     10 H           1.4631    0.5600    0.0000 H       1  UNL1        0.0230
     11 H           1.6900   -0.2869    0.0000 H       1  UNL1        0.0230
@<TRIPOS>BOND
     1     1     2    1
     2     1     3    1
     3     1     4    1
     4     1     5    1
     5     2     6    1
     6     2     7    1
     7     2     8    1
     8     3     9    1
     9     3    10    1
    10     3    11    1
