@<TRIPOS>MOLECULE
180
 10 9 0 0 0
SMALL
GASTEIGER

@<TRIPOS>ATOM
      1 O           3.7320    0.7500    0.0000 O.2     1  UNL1       -0.2980
      2 C           2.8660    0.2500    0.0000 C.2     1  UNL1        0.1273
      3 C           2.0000    0.7500    0.0000 C.3     1  UNL1       -0.0063
      4 C           2.8660   -0.7500    0.0000 C.3     1  UNL1       -0.0063
      5 H           2.3100    1.2869    0.0000 H       1  UNL1        0.0306
      6 H           1.4631    1.0600    0.0000 H       1  UNL1        0.0306
      7 H           1.6900    0.2131    0.0000 H       1  UNL1        0.0306
      8 H           2.2460   -0.7500    0.0000 H       1  UNL1        0.0306
      9 H           2.8660   -1.3700    0.0000 H       1  UNL1        0.0306
     10 H           3.4860   -0.7500    0.0000 H       1  UNL1        0.0306
@<TRIPOS>BOND
     1     1     2    2
     2     2     3    1
     3     2     4    1
     4     3     5    1
     5     3     6    1
     6     3     7    1
     7     4     8    1
     8     4     9    1
     9     4    10    1
