@<TRIPOS>MOLECULE
8252
 9 8 0 0 0
SMALL
GASTEIGER

@<TRIPOS>ATOM
      1 C           3.7320    0.2500    0.0000 C.3     1  UNL1       -0.0471
      2 C           2.8660   -0.2500    0.0000 C.2     1  UNL1       -0.0942
      3 C           2.0000    0.2500    0.0000 C.2     1  UNL1       -0.1029
      4 H           4.0420   -0.2869    0.0000 H       1  UNL1        0.0272
      5 H           4.2690    0.5600    0.0000 H       1  UNL1        0.0272
      6 H           3.4220    0.7869    0.0000 H       1  UNL1        0.0272
      7 H           2.8660   -0.8700    0.0000 H       1  UNL1        0.0564
      8 H           2.0000    0.8700    0.0000 H       1  UNL1        0.0532
      9 H           1.4631   -0.0600    0.0000 H       1  UNL1        0.0532
@<TRIPOS>BOND
     1     1     2    1
     2     1     4    1
     3     1     5    1
     4     1     6    1
     5     2     3    2
     6     2     7    1
     7     3     8    1
     8     3     9    1
