@<TRIPOS>MOLECULE
7366
 24 24 0 0 0
SMALL
GASTEIGER

@<TRIPOS>ATOM
      1 C           3.0000    1.0000    0.0000 C.3     1  UNL1       -0.0127
      2 C           3.0000    0.0000    0.0000 C.ar    1  UNL1       -0.0420
      3 C           3.0000    2.0000    0.0000 C.3     1  UNL1       -0.0560
      4 C           4.0000    1.0000    0.0000 C.3     1  UNL1       -0.0560
      5 C           2.0000    1.0000    0.0000 C.3     1  UNL1       -0.0560
      6 C           2.1340   -0.5000    0.0000 C.ar    1  UNL1       -0.0581
      7 C           3.8660   -0.5000    0.0000 C.ar    1  UNL1       -0.0581
      8 C           2.1340   -1.5000    0.0000 C.ar    1  UNL1       -0.0615
      9 C           3.8660   -1.5000    0.0000 C.ar    1  UNL1       -0.0615
     10 C           3.0000   -2.0000    0.0000 C.ar    1  UNL1       -0.0617
     11 H           3.6200    2.0000    0.0000 H       1  UNL1        0.0238
     12 H           3.0000    2.6200    0.0000 H       1  UNL1        0.0238
     13 H           2.3800    2.0000    0.0000 H       1  UNL1        0.0238
     14 H           4.0000    0.3800    0.0000 H       1  UNL1        0.0238
     15 H           4.6200    1.0000    0.0000 H       1  UNL1        0.0238
     16 H           4.0000    1.6200    0.0000 H       1  UNL1        0.0238
     17 H           2.0000    1.6200    0.0000 H       1  UNL1        0.0238
     18 H           1.3800    1.0000    0.0000 H       1  UNL1        0.0238
     19 H           2.0000    0.3800    0.0000 H       1  UNL1        0.0238
     20 H           1.5970   -0.1900    0.0000 H       1  UNL1        0.0620
     21 H           4.4030   -0.1900    0.0000 H       1  UNL1        0.0620
     22 H           1.5970   -1.8100    0.0000 H       1  UNL1        0.0618
     23 H           4.4030   -1.8100    0.0000 H       1  UNL1        0.0618
     24 H           3.0000   -2.6200    0.0000 H       1  UNL1        0.0618
@<TRIPOS>BOND
     1     1     2    1
     2     1     3    1
     3     1     4    1
     4     1     5    1
     5     2     6   ar
     6     2     7   ar
     7     3    11    1
     8     3    12    1
     9     3    13    1
    10     4    14    1
    11     4    15    1
    12     4    16    1
    13     5    17    1
    14     5    18    1
    15     5    19    1
    16     6     8   ar
    17     6    20    1
    18     7     9   ar
    19     7    21    1
    20     8    10   ar
    21     8    22    1
    22     9    10   ar
    23     9    23    1
    24    10    24    1
