@<TRIPOS>MOLECULE
5943
 5 4 0 0 0
SMALL
GASTEIGER

@<TRIPOS>ATOM
      1 CL          3.7320    0.5000    0.0000 Cl      1  UNL1       -0.0666
      2 CL          2.0000   -0.5000    0.0000 Cl      1  UNL1       -0.0666
      3 CL          2.3660    0.8660    0.0000 Cl      1  UNL1       -0.0666
      4 CL          3.3660   -0.8660    0.0000 Cl      1  UNL1       -0.0666
      5 C           2.8660    0.0000    0.0000 C.3     1  UNL1        0.2662
@<TRIPOS>BOND
     1     1     5    1
     2     2     5    1
     3     3     5    1
     4     4     5    1
