@<TRIPOS>MOLECULE
31373
 6 5 0 0 0
SMALL
GASTEIGER

@<TRIPOS>ATOM
      1 CL          4.5981   -0.2500    0.0000 Cl      1  UNL1       -0.0680
      2 CL          3.7320    1.2500    0.0000 Cl      1  UNL1       -0.0680
      3 CL          2.0000    0.2500    0.0000 Cl      1  UNL1       -0.0680
      4 CL          2.8660   -1.2500    0.0000 Cl      1  UNL1       -0.0680
      5 C           3.7320    0.2500    0.0000 C.2     1  UNL1        0.1360
      6 C           2.8660   -0.2500    0.0000 C.2     1  UNL1        0.1360
@<TRIPOS>BOND
     1     1     5    1
     2     2     5    1
     3     3     6    1
     4     4     6    1
     5     5     6    2
