@<TRIPOS>MOLECULE
6575
 6 5 0 0 0
SMALL
GASTEIGER

@<TRIPOS>ATOM
      1 CL          2.0000    0.7500    0.0000 Cl      1  UNL1       -0.0696
      2 CL          2.8660   -0.7500    0.0000 Cl      1  UNL1       -0.0696
      3 CL          4.5981    0.2500    0.0000 Cl      1  UNL1       -0.0896
      4 C           2.8660    0.2500    0.0000 C.2     1  UNL1        0.1176
      5 C           3.7320    0.7500    0.0000 C.2     1  UNL1        0.0342
      6 H           3.7320    1.3700    0.0000 H       1  UNL1        0.0770
@<TRIPOS>BOND
     1     1     4    1
     2     2     4    1
     3     3     5    1
     4     4     5    2
     5     5     6    1
