@<TRIPOS>MOLECULE
002dime_5
   28    27     1     0     0
SMALL
bcc


@<TRIPOS>ATOM
      1 C           -1.5340     0.5930     0.0960 c3         1 UNL      -0.094850
      2 C1          -0.3100     1.5090    -0.0890 c3         1 UNL      -0.058700
      3 C2           0.3220     1.3100    -1.4800 c3         1 UNL      -0.094850
      4 C3           0.7150     1.3940     1.0720 c3         1 UNL      -0.180400
      5 C4           1.3900     0.0300     1.2440 c          1 UNL       0.571100
      6 O            0.8610    -0.8530     1.9220 o          1 UNL      -0.534100
      7 C5           2.7440    -0.1750     0.5510 c3         1 UNL      -0.180400
      8 C6           3.1700    -1.6430     0.2960 c3         1 UNL      -0.058700
      9 C7           4.6380    -1.7000    -0.1570 c3         1 UNL      -0.094850
     10 C8           2.2620    -2.3490    -0.7310 c3         1 UNL      -0.094850
     11 H           -1.2650    -0.4630     0.0320 hc         1 UNL       0.037617
     12 H1          -2.0070     0.7540     1.0660 hc         1 UNL       0.037617
     13 H2          -2.2900     0.7820    -0.6670 hc         1 UNL       0.037617
     14 H3          -0.6840     2.5360    -0.0620 hc         1 UNL       0.059200
     15 H4          -0.3950     1.5280    -2.2730 hc         1 UNL       0.037617
     16 H5           1.1750     1.9720    -1.6270 hc         1 UNL       0.037617
     17 H6           0.6650     0.2850    -1.6280 hc         1 UNL       0.037617
     18 H7           0.2200     1.6340     2.0130 hc         1 UNL       0.063200
     19 H8           1.4960     2.1440     0.9470 hc         1 UNL       0.063200
     20 H9           2.7430     0.3800    -0.3860 hc         1 UNL       0.063200
     21 H10          3.4850     0.3070     1.1880 hc         1 UNL       0.063200
     22 H11          3.1040    -2.1940     1.2390 hc         1 UNL       0.059200
     23 H12          4.7880    -1.1710    -1.0990 hc         1 UNL       0.037617
     24 H13          5.3000    -1.2500     0.5830 hc         1 UNL       0.037617
     25 H14          4.9700    -2.7290    -0.3010 hc         1 UNL       0.037617
     26 H15          2.2850    -1.8450    -1.6980 hc         1 UNL       0.037617
     27 H16          2.5750    -3.3820    -0.8910 hc         1 UNL       0.037617
     28 H17          1.2240    -2.3800    -0.4000 hc         1 UNL       0.037617
@<TRIPOS>BOND
     1     1    13 1   
     2     1     2 1   
     3     1    11 1   
     4     1    12 1   
     5     2     3 1   
     6     2    14 1   
     7     2     4 1   
     8     3    15 1   
     9     3    17 1   
    10     3    16 1   
    11     4    19 1   
    12     4     5 1   
    13     4    18 1   
    14     5     7 1   
    15     5     6 2   
    16     7    20 1   
    17     7     8 1   
    18     7    21 1   
    19     8    10 1   
    20     8     9 1   
    21     8    22 1   
    22     9    23 1   
    23     9    25 1   
    24     9    24 1   
    25    10    26 1   
    26    10    27 1   
    27    10    28 1   
@<TRIPOS>SUBSTRUCTURE
     1 UNL         1 TEMP              0 ****  ****    0 ROOT
